<?xml version="1.0" encoding="UTF-8"?>

<!-- generated on 2024-02-02 20:52:54 by Eclipse SUMO netconvert Version 1.19.0
<configuration xmlns:xsi="http://www.w3.org/2001/XMLSchema-instance" xsi:noNamespaceSchemaLocation="http://sumo.dlr.de/xsd/netconvertConfiguration.xsd">

    <input>
        <sumo-net-file value="./StuttgartSouthModel/osm.net.xml"/>
    </input>

    <output>
        <plain-output-prefix value="./StuttgartSouthModel/plainfiles/PLAIN"/>
        <output.street-names value="true"/>
    </output>

    <processing>
        <geometry.min-radius.fix.railways value="false"/>
        <geometry.max-grade.fix value="false"/>
        <offset.disable-normalization value="true"/>
        <lefthand value="0"/>
    </processing>

    <junctions>
        <no-turnarounds value="true"/>
        <junctions.corner-detail value="5"/>
        <junctions.limit-turn-speed value="5.50"/>
        <rectangular-lane-cut value="0"/>
    </junctions>

    <pedestrian>
        <walkingareas value="0"/>
    </pedestrian>

</configuration>
-->

<connections version="1.16" xmlns:xsi="http://www.w3.org/2001/XMLSchema-instance" xsi:noNamespaceSchemaLocation="http://sumo.dlr.de/xsd/connections_file.xsd">
    <connection from="-1000335067#0" to="-377909702#3" fromLane="0" toLane="0"/>
    <connection from="-1000335067#0" to="612900676#0" fromLane="0" toLane="0"/>
    <connection from="-1000335067#0" to="612883471#0" fromLane="0" toLane="0"/>
    <connection from="-1000335067#0" to="1000335067#0" fromLane="0" toLane="0"/>

    <connection from="-1000335067#1" to="-1000335067#0" fromLane="0" toLane="0"/>
    <connection from="-1000335067#1" to="229100199" fromLane="0" toLane="0"/>

    <connection from="-1000335067#2" to="96216636" fromLane="0" toLane="0"/>
    <connection from="-1000335067#2" to="-1000335067#1" fromLane="0" toLane="0"/>

    <connection from="-1000335068#0" to="-612908644#1" fromLane="0" toLane="0"/>
    <connection from="-1000335068#0" to="-1000335067#2" fromLane="0" toLane="0"/>
    <connection from="-1000335068#0" to="612908643#0" fromLane="0" toLane="0"/>
    <connection from="-1000335068#0" to="1000335068#0" fromLane="0" toLane="0"/>

    <connection from="-100468015" to="100468015" fromLane="0" toLane="0"/>

    <connection from="-100468024#0" to="-28566221#1" fromLane="0" toLane="0"/>
    <connection from="-100468024#0" to="100468024#0" fromLane="0" toLane="0"/>

    <connection from="-100469067" to="25240668#0" fromLane="0" toLane="0"/>
    <connection from="-100469067" to="100469068" fromLane="0" toLane="2"/>
    <connection from="-100469067" to="100469067" fromLane="0" toLane="0"/>

    <connection from="-100470145" to="375323219#0" fromLane="0" toLane="0"/>
    <connection from="-100470145" to="-375323219#3" fromLane="0" toLane="0"/>
    <connection from="-100470145" to="100470145" fromLane="0" toLane="0"/>

    <connection from="-100489326" to="-9665086#0" fromLane="0" toLane="0"/>
    <connection from="-100489326" to="9665086#1" fromLane="0" toLane="0"/>
    <connection from="-100489326" to="100489326" fromLane="0" toLane="0"/>

    <connection from="-100489355" to="100489355" fromLane="0" toLane="0"/>

    <connection from="-100489396#1" to="23738171#1" fromLane="0" toLane="0"/>
    <connection from="-100489396#1" to="-26144260#2" fromLane="0" toLane="0"/>
    <connection from="-100489396#1" to="343767956" fromLane="0" toLane="1"/>
    <connection from="-100489396#1" to="-22909143" fromLane="0" toLane="0"/>
    <connection from="-100489396#1" to="-39522526" fromLane="0" toLane="1"/>
    <connection from="-100489396#1" to="100489396#1" fromLane="0" toLane="0"/>

    <connection from="-100489396#2" to="-100489396#1" fromLane="0" toLane="0"/>
    <connection from="-100489396#2" to="100489396#2" fromLane="0" toLane="0"/>

    <connection from="-100489396#3" to="-100489396#2" fromLane="0" toLane="0"/>
    <connection from="-100489396#3" to="100489396#3" fromLane="0" toLane="0"/>

    <connection from="-10125759#0" to="35373256" fromLane="0" toLane="0"/>
    <connection from="-10125759#0" to="22727883#1" fromLane="0" toLane="0"/>
    <connection from="-10125759#0" to="-305419542#2" fromLane="0" toLane="0"/>
    <connection from="-10125759#0" to="24541415#0" fromLane="0" toLane="0" allow="pedestrian bicycle"/>
    <connection from="-10125759#0" to="10125759#0" fromLane="0" toLane="0"/>
    <connection from="-10125759#0" to="-344202770#1" fromLane="0" toLane="0"/>

    <connection from="-10125759#1" to="-10125759#0" fromLane="0" toLane="0"/>
    <connection from="-10125759#1" to="-24541415#0" fromLane="0" toLane="0" allow="pedestrian bicycle"/>
    <connection from="-10125759#1" to="24541415#1" fromLane="0" toLane="0" allow="pedestrian bicycle"/>
    <connection from="-10125759#1" to="10125759#1" fromLane="0" toLane="0"/>

    <connection from="-1017605757" to="1115743122" fromLane="0" toLane="0"/>
    <connection from="-1017605757" to="-2954864#3" fromLane="0" toLane="0"/>

    <connection from="-102534483" to="102534484#2" fromLane="0" toLane="0"/>
    <connection from="-102534483" to="-102534484#1" fromLane="0" toLane="0"/>
    <connection from="-102534483" to="102534483" fromLane="0" toLane="0"/>

    <connection from="-102534484#0" to="-13872582#1" fromLane="0" toLane="0"/>
    <connection from="-102534484#0" to="740515088" fromLane="0" toLane="0"/>
    <connection from="-102534484#0" to="13872582#3" fromLane="0" toLane="0"/>
    <connection from="-102534484#0" to="102534484#0" fromLane="0" toLane="0"/>

    <connection from="-102534484#1" to="-13872608" fromLane="0" toLane="0"/>
    <connection from="-102534484#1" to="-102534484#0" fromLane="0" toLane="0"/>
    <connection from="-102534484#1" to="102534484#1" fromLane="0" toLane="0"/>

    <connection from="-102534486#0" to="-102534484#1" fromLane="0" toLane="0"/>
    <connection from="-102534486#0" to="102534483" fromLane="0" toLane="0"/>
    <connection from="-102534486#0" to="102534484#2" fromLane="0" toLane="0"/>

    <connection from="-102534486#1" to="-102534486#0" fromLane="0" toLane="0"/>
    <connection from="-102534486#1" to="-102534483" fromLane="0" toLane="0"/>
    <connection from="-102534486#1" to="102534486#1" fromLane="0" toLane="0"/>

    <connection from="-1028613550" to="-346909274#1" fromLane="0" toLane="0"/>
    <connection from="-1028613550" to="346909274#2" fromLane="0" toLane="0"/>
    <connection from="-1028613550" to="1028613550" fromLane="0" toLane="0"/>

    <connection from="-1035998334" to="-208468663" fromLane="0" toLane="0"/>
    <connection from="-1035998334" to="1035998334" fromLane="0" toLane="0"/>

    <connection from="-1042411204" to="1042411204" fromLane="0" toLane="0"/>

    <connection from="-104868696" to="104868731#1" fromLane="0" toLane="0"/>
    <connection from="-104868696" to="-104868731#0" fromLane="0" toLane="0"/>
    <connection from="-104868696" to="104868696" fromLane="0" toLane="0"/>

    <connection from="-104868724" to="-24066344#2" fromLane="0" toLane="0"/>
    <connection from="-104868724" to="24066344#4" fromLane="0" toLane="0"/>
    <connection from="-104868724" to="104868724" fromLane="0" toLane="0"/>

    <connection from="-104868731#0" to="-4017166#4" fromLane="0" toLane="0" keepClear="0"/>

    <connection from="-104868731#1" to="-104868731#0" fromLane="0" toLane="0"/>
    <connection from="-104868731#1" to="104868696" fromLane="0" toLane="0"/>
    <connection from="-104868731#1" to="104868731#1" fromLane="0" toLane="0"/>

    <connection from="-104868737#0" to="4017166#1" fromLane="0" toLane="0"/>
    <connection from="-104868737#0" to="-574563259#2" fromLane="0" toLane="1"/>
    <connection from="-104868737#0" to="316712303" fromLane="0" toLane="0"/>
    <connection from="-104868737#0" to="104868737#0" fromLane="0" toLane="0"/>

    <connection from="-104868737#1" to="-104868737#0" fromLane="0" toLane="0"/>
    <connection from="-104868737#1" to="983673318#0" fromLane="0" toLane="0"/>
    <connection from="-104868737#1" to="104868737#1" fromLane="0" toLane="0"/>

    <connection from="-104892764" to="9206299#1" fromLane="0" toLane="0"/>
    <connection from="-104892764" to="-9206299#0" fromLane="0" toLane="0"/>
    <connection from="-104892764" to="104892764" fromLane="0" toLane="0"/>

    <connection from="-104892775" to="23387475#3" fromLane="0" toLane="0"/>
    <connection from="-104892775" to="104892775" fromLane="0" toLane="0"/>

    <connection from="-104892797" to="-410879257#1" fromLane="0" toLane="0"/>
    <connection from="-104892797" to="410879257#2" fromLane="0" toLane="0"/>
    <connection from="-104892797" to="104892797" fromLane="0" toLane="0"/>

    <connection from="-1051834093" to="1051834093" fromLane="0" toLane="0"/>
    <connection from="-1051834093" to="9253089#1" fromLane="0" toLane="0"/>

    <connection from="-1053083768" to="23738171#4" fromLane="0" toLane="0"/>
    <connection from="-1053083768" to="-23738171#3" fromLane="0" toLane="0"/>
    <connection from="-1053083768" to="1053083768" fromLane="0" toLane="0"/>

    <connection from="-1058067779#0" to="1058067779#0" fromLane="0" toLane="0"/>

    <connection from="-1058067779#1" to="24066243#2" fromLane="0" toLane="0"/>
    <connection from="-1058067779#1" to="-1058067779#0" fromLane="0" toLane="0"/>
    <connection from="-1058067779#1" to="-24066243#1" fromLane="0" toLane="0"/>
    <connection from="-1058067779#1" to="1058067779#1" fromLane="0" toLane="0"/>

    <connection from="-1059655527" to="-895922225#1" fromLane="0" toLane="0"/>
    <connection from="-1059655527" to="895922225#2" fromLane="0" toLane="0"/>
    <connection from="-1059655527" to="1059655527" fromLane="0" toLane="0"/>

    <connection from="-106448137#0" to="-41913501#1" fromLane="0" toLane="0"/>
    <connection from="-106448137#0" to="10864092#0" fromLane="0" toLane="0"/>
    <connection from="-106448137#0" to="106448137#0" fromLane="0" toLane="0"/>

    <connection from="-106448137#1" to="43128399" fromLane="0" toLane="0"/>
    <connection from="-106448137#1" to="-106448137#0" fromLane="0" toLane="0"/>

    <connection from="-106448137#3" to="-13085803#1" fromLane="0" toLane="0"/>
    <connection from="-106448137#3" to="-106448137#1" fromLane="0" toLane="0"/>
    <connection from="-106448137#3" to="13085689#0" fromLane="0" toLane="0"/>
    <connection from="-106448137#3" to="106448137#3" fromLane="0" toLane="0"/>

    <connection from="-1069091171" to="-26106125#4" fromLane="0" toLane="0"/>
    <connection from="-1069091171" to="26106125#5" fromLane="0" toLane="0"/>
    <connection from="-1069091171" to="1069091171" fromLane="0" toLane="0"/>

    <connection from="-1077048343#0" to="26106125#0" fromLane="0" toLane="0"/>
    <connection from="-1077048343#0" to="-9264306#2" fromLane="0" toLane="0"/>
    <connection from="-1077048343#0" to="9264306#3" fromLane="0" toLane="0"/>

    <connection from="-1077048343#1" to="24440732" fromLane="0" toLane="0"/>
    <connection from="-1077048343#1" to="-1077048343#0" fromLane="0" toLane="0"/>

    <connection from="-1077054744" to="352955426#0" fromLane="0" toLane="0"/>
    <connection from="-1077054744" to="-386209149" fromLane="0" toLane="0"/>
    <connection from="-1077054744" to="64820892" fromLane="0" toLane="0"/>

    <connection from="-1077109463#0" to="3996847#1" fromLane="0" toLane="0"/>
    <connection from="-1077109463#0" to="317267355" fromLane="0" toLane="0"/>

    <connection from="-1077109463#1" to="25746219" fromLane="0" toLane="0"/>
    <connection from="-1077109463#1" to="-1077109463#0" fromLane="0" toLane="0"/>
    <connection from="-1077109463#1" to="1077109463#1" fromLane="0" toLane="0"/>

    <connection from="-108149737#0" to="-959037157#1" fromLane="0" toLane="0"/>

    <connection from="-108149737#1" to="-108149737#0" fromLane="0" toLane="0"/>

    <connection from="-1082150188" to="895922225#3" fromLane="0" toLane="0"/>
    <connection from="-1082150188" to="-895922225#2" fromLane="0" toLane="0"/>
    <connection from="-1082150188" to="1082150188" fromLane="0" toLane="0"/>

    <connection from="-1082150189#1" to="237092646#2" fromLane="0" toLane="0"/>
    <connection from="-1082150189#1" to="-25904565#1" fromLane="0" toLane="0" allow="bicycle"/>
    <connection from="-1082150189#1" to="-237092646#0" fromLane="0" toLane="0"/>
    <connection from="-1082150189#1" to="1082150189#1" fromLane="0" toLane="0"/>

    <connection from="-1083283316" to="25904556#2" fromLane="0" toLane="0"/>
    <connection from="-1083283316" to="-25904556#1" fromLane="0" toLane="0"/>
    <connection from="-1083283316" to="1083283316" fromLane="0" toLane="0"/>

    <connection from="-10862820#0" to="-142305080#2" fromLane="0" toLane="0"/>
    <connection from="-10862820#0" to="142305080#3" fromLane="0" toLane="0"/>
    <connection from="-10862820#0" to="10862820#0" fromLane="0" toLane="0"/>

    <connection from="-10862820#1" to="-10862820#0" fromLane="0" toLane="0"/>
    <connection from="-10862820#1" to="132760251" fromLane="0" toLane="0"/>

    <connection from="-10864063" to="-150035010#6" fromLane="0" toLane="0"/>
    <connection from="-10864063" to="-360016685" fromLane="0" toLane="0"/>
    <connection from="-10864063" to="10864063" fromLane="1" toLane="0"/>

    <connection from="-10864092#0" to="106448137#0" fromLane="0" toLane="0"/>
    <connection from="-10864092#0" to="-41913501#1" fromLane="0" toLane="0"/>
    <connection from="-10864092#0" to="10864092#0" fromLane="0" toLane="0"/>

    <connection from="-10864092#2" to="-10864092#0" fromLane="0" toLane="0"/>
    <connection from="-10864092#2" to="43117692" fromLane="0" toLane="0"/>

    <connection from="-10864092#5" to="-10864092#2" fromLane="0" toLane="0"/>
    <connection from="-10864092#5" to="-10864283#4" fromLane="0" toLane="0"/>
    <connection from="-10864092#5" to="10864092#3" fromLane="0" toLane="0"/>

    <connection from="-10864199" to="10864199" fromLane="0" toLane="0"/>

    <connection from="-10864231#0" to="-361366561" fromLane="0" toLane="0"/>
    <connection from="-10864231#0" to="303660229#0" fromLane="0" toLane="0"/>
    <connection from="-10864231#0" to="1168886515" fromLane="0" toLane="0"/>

    <connection from="-10864231#1" to="-41916520" fromLane="0" toLane="0"/>
    <connection from="-10864231#1" to="-10864231#0" fromLane="0" toLane="0"/>
    <connection from="-10864231#1" to="10864231#1" fromLane="0" toLane="0"/>

    <connection from="-10864283#0" to="10864283#0" fromLane="0" toLane="0"/>

    <connection from="-10864283#1" to="-10864231#1" fromLane="0" toLane="0"/>
    <connection from="-10864283#1" to="-10864283#0" fromLane="0" toLane="0"/>
    <connection from="-10864283#1" to="1168887077" fromLane="0" toLane="0"/>
    <connection from="-10864283#1" to="10864283#1" fromLane="0" toLane="0"/>

    <connection from="-10864283#2" to="-10864283#1" fromLane="0" toLane="0"/>

    <connection from="-10864283#3" to="41925413" fromLane="0" toLane="0"/>
    <connection from="-10864283#3" to="-10864283#2" fromLane="0" toLane="0"/>

    <connection from="-10864283#4" to="10864736#1" fromLane="0" toLane="0"/>
    <connection from="-10864283#4" to="-10864283#3" fromLane="0" toLane="0"/>
    <connection from="-10864283#4" to="-10864736#0" fromLane="0" toLane="0"/>
    <connection from="-10864283#4" to="10864283#4" fromLane="0" toLane="0"/>

    <connection from="-10864736#0" to="-25109653#2" fromLane="0" toLane="0"/>
    <connection from="-10864736#0" to="25109653#3" fromLane="0" toLane="0"/>
    <connection from="-10864736#0" to="10864736#0" fromLane="0" toLane="0"/>

    <connection from="-10864736#1" to="-10864283#3" fromLane="0" toLane="0"/>
    <connection from="-10864736#1" to="-10864736#0" fromLane="0" toLane="0"/>
    <connection from="-10864736#1" to="10864283#4" fromLane="0" toLane="0"/>
    <connection from="-10864736#1" to="10864736#1" fromLane="0" toLane="0"/>

    <connection from="-10864736#2" to="-10864736#1" fromLane="0" toLane="0"/>
    <connection from="-10864736#2" to="-43117692" fromLane="0" toLane="0"/>

    <connection from="-10864736#3" to="41927317" fromLane="0" toLane="0"/>
    <connection from="-10864736#3" to="-10864736#2" fromLane="0" toLane="0"/>

    <connection from="-10864736#4" to="41927318" fromLane="0" toLane="0"/>
    <connection from="-10864736#4" to="-10864736#3" fromLane="0" toLane="0"/>

    <connection from="-10864773" to="-599628916" fromLane="0" toLane="0"/>
    <connection from="-10864773" to="1209687037#0" fromLane="0" toLane="0"/>
    <connection from="-10864773" to="23480551#0" fromLane="0" toLane="0"/>
    <connection from="-10864773" to="10864773" fromLane="0" toLane="0"/>

    <connection from="-1089992087" to="1238088794#1" fromLane="0" toLane="0"/>
    <connection from="-1089992087" to="-1238088794#0" fromLane="0" toLane="0"/>
    <connection from="-1089992087" to="1089992087" fromLane="0" toLane="0"/>

    <connection from="-1090683497#0" to="-11284006#1" fromLane="0" toLane="0"/>
    <connection from="-1090683497#0" to="338540137" fromLane="0" toLane="0"/>
    <connection from="-1090683497#0" to="1090683497#0" fromLane="0" toLane="0"/>

    <connection from="-1090683497#1" to="-1090683497#0" fromLane="0" toLane="0"/>
    <connection from="-1090683497#1" to="1090683497#1" fromLane="0" toLane="0"/>

    <connection from="-1090683500" to="150035010#3" fromLane="0" toLane="0"/>
    <connection from="-1090683500" to="-150035010#2" fromLane="0" toLane="0"/>
    <connection from="-1090683500" to="1090683500" fromLane="0" toLane="0"/>

    <connection from="-1090684378#0" to="-11283351#4" fromLane="0" toLane="0"/>
    <connection from="-1090684378#0" to="11283351#6" fromLane="0" toLane="0"/>
    <connection from="-1090684378#0" to="1090684378#0" fromLane="0" toLane="0"/>

    <connection from="-1090684378#1" to="-1090684378#0" fromLane="0" toLane="0"/>
    <connection from="-1090684378#1" to="1090684378#1" fromLane="0" toLane="0"/>

    <connection from="-1090684408" to="602928009#3" fromLane="0" toLane="0"/>
    <connection from="-1090684408" to="-602928009#2" fromLane="0" toLane="0"/>
    <connection from="-1090684408" to="1090684408" fromLane="0" toLane="0"/>

    <connection from="-1090685075" to="24440736#1" fromLane="0" toLane="0"/>
    <connection from="-1090685075" to="-24440736#0" fromLane="0" toLane="0"/>
    <connection from="-1090685075" to="1090685075" fromLane="0" toLane="0"/>

    <connection from="-1090712242#0" to="-225114448#0" fromLane="0" toLane="0"/>
    <connection from="-1090712242#0" to="-483018071#0" fromLane="0" toLane="0"/>
    <connection from="-1090712242#0" to="-146480111#1" fromLane="1" toLane="0"/>
    <connection from="-1090712242#0" to="483018071#1" fromLane="1" toLane="0"/>

    <connection from="-1090757085" to="600073270#2" fromLane="0" toLane="0"/>
    <connection from="-1090757085" to="600073270#2" fromLane="0" toLane="1"/>
    <connection from="-1090757085" to="-600073270#1" fromLane="0" toLane="0"/>
    <connection from="-1090757085" to="1090757085" fromLane="0" toLane="0"/>

    <connection from="-1092598219" to="124811367#7" fromLane="0" toLane="0"/>
    <connection from="-1092598219" to="-124811367#2" fromLane="0" toLane="0"/>
    <connection from="-1092598219" to="1092598220" fromLane="0" toLane="0"/>
    <connection from="-1092598219" to="1092598222" fromLane="0" toLane="0"/>
    <connection from="-1092598219" to="1092598221" fromLane="0" toLane="0"/>
    <connection from="-1092598219" to="1092598219" fromLane="0" toLane="0"/>

    <connection from="-1092598220" to="1092598221" fromLane="0" toLane="0"/>
    <connection from="-1092598220" to="1092598219" fromLane="0" toLane="0"/>
    <connection from="-1092598220" to="124811367#7" fromLane="0" toLane="0"/>
    <connection from="-1092598220" to="-124811367#2" fromLane="0" toLane="0"/>
    <connection from="-1092598220" to="1092598220" fromLane="0" toLane="0"/>
    <connection from="-1092598220" to="1092598222" fromLane="0" toLane="0"/>

    <connection from="-1092598221" to="1092598219" fromLane="0" toLane="0"/>
    <connection from="-1092598221" to="124811367#7" fromLane="0" toLane="0"/>
    <connection from="-1092598221" to="-124811367#2" fromLane="0" toLane="0"/>
    <connection from="-1092598221" to="1092598220" fromLane="0" toLane="0"/>
    <connection from="-1092598221" to="1092598222" fromLane="0" toLane="0"/>
    <connection from="-1092598221" to="1092598221" fromLane="0" toLane="0"/>

    <connection from="-1092598222" to="1092598221" fromLane="0" toLane="0"/>
    <connection from="-1092598222" to="1092598219" fromLane="0" toLane="0"/>
    <connection from="-1092598222" to="124811367#7" fromLane="0" toLane="0"/>
    <connection from="-1092598222" to="-124811367#2" fromLane="0" toLane="0"/>
    <connection from="-1092598222" to="1092598220" fromLane="0" toLane="0"/>
    <connection from="-1092598222" to="1092598222" fromLane="0" toLane="0"/>

    <connection from="-1092598223" to="124811367#2" fromLane="0" toLane="0"/>
    <connection from="-1092598223" to="-124811367#1" fromLane="0" toLane="0"/>
    <connection from="-1092598223" to="1092598223" fromLane="0" toLane="0"/>

    <connection from="-1111961753#0" to="-356587064" fromLane="0" toLane="0"/>

    <connection from="-1111961753#1" to="-1111961753#0" fromLane="0" toLane="0"/>

    <connection from="-1111961753#2" to="-356587068" fromLane="0" toLane="0"/>
    <connection from="-1111961753#2" to="-1111961753#1" fromLane="0" toLane="0"/>

    <connection from="-1111961753#3" to="-356587070" fromLane="0" toLane="0"/>
    <connection from="-1111961753#3" to="-1111961753#2" fromLane="0" toLane="0"/>

    <connection from="-1111961753#4" to="-1111961753#3" fromLane="0" toLane="0"/>

    <connection from="-1111961753#5" to="576181868" fromLane="0" toLane="0"/>
    <connection from="-1111961753#5" to="-1111961753#4" fromLane="0" toLane="0"/>

    <connection from="-1111961753#6" to="-356587067" fromLane="0" toLane="0"/>
    <connection from="-1111961753#6" to="-1111961753#5" fromLane="0" toLane="0"/>

    <connection from="-1111963653" to="1111963653" fromLane="0" toLane="0"/>

    <connection from="-1111963655" to="1111963655" fromLane="0" toLane="0"/>

    <connection from="-1111964521" to="1111964521" fromLane="0" toLane="0"/>

    <connection from="-1111964632" to="1111964632" fromLane="0" toLane="0"/>

    <connection from="-1111966961" to="-356587069" fromLane="0" toLane="0"/>
    <connection from="-1111966961" to="1111966961" fromLane="0" toLane="0"/>

    <connection from="-1115699983" to="1115699983" fromLane="0" toLane="0"/>

    <connection from="-1115699984" to="270408210" fromLane="0" toLane="0"/>
    <connection from="-1115699984" to="-1017605757" fromLane="0" toLane="0"/>
    <connection from="-1115699984" to="1115699984" fromLane="0" toLane="0"/>

    <connection from="-1115699985" to="1115699985" fromLane="0" toLane="0"/>

    <connection from="-1115699987" to="1115699987" fromLane="0" toLane="0"/>

    <connection from="-1115699988" to="1115699988" fromLane="0" toLane="0"/>

    <connection from="-1115743113" to="-4821895#2" fromLane="0" toLane="0"/>
    <connection from="-1115743113" to="4821895#3" fromLane="0" toLane="0"/>
    <connection from="-1115743113" to="1115743113" fromLane="0" toLane="0"/>

    <connection from="-1115743114" to="1115743114" fromLane="0" toLane="0"/>

    <connection from="-1115743115" to="-4821895#3" fromLane="0" toLane="0"/>
    <connection from="-1115743115" to="4821895#4" fromLane="0" toLane="0"/>
    <connection from="-1115743115" to="1115743115" fromLane="0" toLane="0"/>

    <connection from="-1115743117" to="1115743117" fromLane="0" toLane="0"/>

    <connection from="-1115743119" to="305428299#2" fromLane="0" toLane="0"/>
    <connection from="-1115743119" to="-305428299#1" fromLane="0" toLane="0"/>
    <connection from="-1115743119" to="1115743119" fromLane="0" toLane="0"/>

    <connection from="-1115743122" to="-2954864#3" fromLane="0" toLane="0"/>
    <connection from="-1115743122" to="1017605757" fromLane="0" toLane="0"/>
    <connection from="-1115743122" to="1115743122" fromLane="0" toLane="0"/>

    <connection from="-1116110815" to="438475388#0" fromLane="0" toLane="0"/>
    <connection from="-1116110815" to="762836234" fromLane="0" toLane="0"/>
    <connection from="-1116110815" to="1116110815" fromLane="0" toLane="0"/>

    <connection from="-1126482599" to="9665086#3" fromLane="0" toLane="0"/>
    <connection from="-1126482599" to="-9665096" fromLane="0" toLane="0"/>
    <connection from="-1126482599" to="-9665086#1" fromLane="0" toLane="0"/>
    <connection from="-1126482599" to="1126482599" fromLane="0" toLane="0"/>

    <connection from="-11282594#1" to="-24041099#3" fromLane="0" toLane="0"/>
    <connection from="-11282594#1" to="11283351#0" fromLane="0" toLane="0"/>
    <connection from="-11282594#1" to="600073270#1" fromLane="0" toLane="0"/>
    <connection from="-11282594#1" to="11282594#1" fromLane="0" toLane="0"/>

    <connection from="-11283287" to="-50773734#4" fromLane="0" toLane="0"/>
    <connection from="-11283287" to="11283287" fromLane="0" toLane="0"/>

    <connection from="-11283351#1" to="600073270#1" fromLane="0" toLane="0"/>
    <connection from="-11283351#1" to="600073270#1" fromLane="0" toLane="1"/>
    <connection from="-11283351#1" to="11282594#1" fromLane="0" toLane="0"/>
    <connection from="-11283351#1" to="-24041099#3" fromLane="0" toLane="0"/>
    <connection from="-11283351#1" to="11283351#0" fromLane="0" toLane="0"/>

    <connection from="-11283351#2" to="-11283351#1" fromLane="0" toLane="0"/>

    <connection from="-11283351#3" to="346909278#3" fromLane="0" toLane="0"/>
    <connection from="-11283351#3" to="-11283351#2" fromLane="0" toLane="0"/>
    <connection from="-11283351#3" to="-346909278#2" fromLane="0" toLane="0"/>
    <connection from="-11283351#3" to="11283351#3" fromLane="0" toLane="0"/>

    <connection from="-11283351#4" to="-11283351#3" fromLane="0" toLane="0"/>

    <connection from="-11283351#6" to="1090684378#0" fromLane="0" toLane="0"/>
    <connection from="-11283351#6" to="-11283351#4" fromLane="0" toLane="0"/>

    <connection from="-11283351#7" to="-11283370#2" fromLane="0" toLane="0"/>
    <connection from="-11283351#7" to="-11283351#6" fromLane="0" toLane="0"/>
    <connection from="-11283351#7" to="11283370#3" fromLane="0" toLane="0"/>
    <connection from="-11283351#7" to="11283351#7" fromLane="0" toLane="0"/>

    <connection from="-11283351#8" to="-11283351#7" fromLane="0" toLane="0"/>
    <connection from="-11283351#8" to="-925284735#1" fromLane="0" toLane="0"/>

    <connection from="-11283353#0" to="9264306#0" fromLane="0" toLane="0"/>
    <connection from="-11283353#0" to="3933614#0" fromLane="0" toLane="0"/>
    <connection from="-11283353#0" to="-602928008" fromLane="0" toLane="0"/>
    <connection from="-11283353#0" to="11283353#0" fromLane="0" toLane="0"/>

    <connection from="-11283353#1" to="-11283353#0" fromLane="0" toLane="0"/>
    <connection from="-11283353#1" to="-297687819" fromLane="0" toLane="0"/>

    <connection from="-11283353#2" to="124811370" fromLane="0" toLane="0"/>
    <connection from="-11283353#2" to="-11283353#1" fromLane="0" toLane="0"/>
    <connection from="-11283353#2" to="-11283351#8" fromLane="0" toLane="0"/>
    <connection from="-11283353#2" to="11283353#2" fromLane="0" toLane="0"/>

    <connection from="-11283353#3" to="-11283353#2" fromLane="0" toLane="0"/>

    <connection from="-11283353#5" to="-11283353#3" fromLane="0" toLane="0"/>
    <connection from="-11283353#5" to="11283403#0" fromLane="0" toLane="0"/>
    <connection from="-11283353#5" to="11283353#5" fromLane="0" toLane="0"/>

    <connection from="-11283353#7" to="-11283353#5" fromLane="0" toLane="0"/>
    <connection from="-11283353#7" to="296096004" fromLane="0" toLane="0"/>

    <connection from="-11283353#8" to="33807590#2" fromLane="0" toLane="0"/>
    <connection from="-11283353#8" to="-11283353#7" fromLane="0" toLane="0"/>
    <connection from="-11283353#8" to="-33807590#1" fromLane="0" toLane="0"/>
    <connection from="-11283353#8" to="11283353#8" fromLane="0" toLane="0"/>

    <connection from="-11283353#9" to="23387465#0" fromLane="0" toLane="0"/>
    <connection from="-11283353#9" to="-11283353#8" fromLane="0" toLane="0"/>
    <connection from="-11283353#9" to="11283353#9" fromLane="0" toLane="0"/>

    <connection from="-11283370#0" to="-338540137" fromLane="0" toLane="0"/>

    <connection from="-11283370#1" to="3933608#2" fromLane="0" toLane="0"/>
    <connection from="-11283370#1" to="265426410" fromLane="0" toLane="0"/>
    <connection from="-11283370#1" to="-11283370#0" fromLane="0" toLane="0"/>
    <connection from="-11283370#1" to="-3933608#0" fromLane="0" toLane="0"/>
    <connection from="-11283370#1" to="11283370#1" fromLane="0" toLane="0"/>

    <connection from="-11283370#2" to="-11283370#1" fromLane="0" toLane="0"/>

    <connection from="-11283370#3" to="11283351#7" fromLane="0" toLane="0"/>
    <connection from="-11283370#3" to="-11283370#2" fromLane="0" toLane="0"/>
    <connection from="-11283370#3" to="-11283351#6" fromLane="0" toLane="0"/>
    <connection from="-11283370#3" to="11283370#3" fromLane="0" toLane="0"/>

    <connection from="-11283370#4" to="-11283403#0" fromLane="0" toLane="0"/>
    <connection from="-11283370#4" to="-11283370#3" fromLane="0" toLane="0"/>
    <connection from="-11283370#4" to="11283403#1" fromLane="0" toLane="0"/>
    <connection from="-11283370#4" to="11283370#4" fromLane="0" toLane="0"/>

    <connection from="-11283370#5" to="33807590#1" fromLane="0" toLane="0"/>
    <connection from="-11283370#5" to="-11283370#4" fromLane="0" toLane="0"/>
    <connection from="-11283370#5" to="-33807590#0" fromLane="0" toLane="0"/>
    <connection from="-11283370#5" to="11283370#5" fromLane="0" toLane="0"/>

    <connection from="-11283403#0" to="11283353#5" fromLane="0" toLane="0"/>