<edges xmlns:xsi="http://www.w3.org/2001/XMLSchema-instance" version="1.16" xsi:noNamespaceSchemaLocation="http://sumo.dlr.de/xsd/edges_file.xsd">
    <location netOffset="-507701.51,-5397694.17" convBoundary="0.00,0.00,6976.10,4531.02" origBoundary="9.104768,48.732112,9.199613,48.785059" projParameter="+proj=utm +zone=32 +ellps=WGS84 +datum=WGS84 +units=m +no_defs" />

    <edge id="-1000335067#0" from="2377346577" to="254016911" name="L&#246;wenstra&#223;e" priority="3" type="highway.residential" numLanes="1" speed="8.33" disallow="tram rail_urban rail rail_electric rail_fast ship">
        <lane index="0">
            <param key="origId" value="1000335067" />
        </lane>
    </edge>
    <edge id="-1000335067#1" from="1115318626" to="2377346577" name="L&#246;wenstra&#223;e" priority="3" type="highway.residential" numLanes="1" speed="8.33" disallow="tram rail_urban rail rail_electric rail_fast ship">
        <lane index="0">
            <param key="origId" value="1000335067" />
        </lane>
    </edge>
    <edge id="-1000335067#2" from="254016913" to="1115318626" name="L&#246;wenstra&#223;e" priority="3" type="highway.residential" numLanes="1" speed="8.33" disallow="tram rail_urban rail rail_electric rail_fast ship">
        <lane index="0">
            <param key="origId" value="1000335067" />
        </lane>
    </edge>
    <edge id="-1000335068#0" from="cluster_1115318374_135394973_2450415783_3813178924" to="254016913" name="L&#246;wenstra&#223;e" priority="3" type="highway.residential" numLanes="1" speed="8.33" shape="5309.45,1790.75,461.56 5304.87,1789.63,461.35 5177.64,1753.36,457.5" disallow="tram rail_urban rail rail_electric rail_fast ship">
        <lane index="0">
            <param key="origId" value="1000335068" />
        </lane>
        <param key="origFrom" value="2450415783" />
    </edge>
    <edge id="-100468015" from="1161452844" to="1161452706" priority="1" type="highway.service" numLanes="1" speed="5.56" shape="4547.32,1425.22,460.19 4518.14,1461.45,461.26 4518.2,1510.93,462.95" allow="pedestrian delivery bicycle">
        <lane index="0">
            <param key="origId" value="100468015" />
        </lane>
    </edge>
    <edge id="-100468024#0" from="cluster_1114047545_1114048269_2374127323_2726856967_#1more" to="69306256" name="Epplestra&#223;e" priority="10" type="highway.tertiary" numLanes="1" speed="13.89" shape="4736.61,1455.32,465.5 4725.01,1409.04,464.35 4717.9,1386.36,463.82" disallow="tram rail_urban rail rail_electric rail_fast ship">
        <lane index="0">
            <param key="origId" value="100468024" />
        </lane>
        <param key="origFrom" value="2374127323" />
        <param key="ref" value="K 9507" />
    </edge>
    <edge id="-100469067" from="589761" to="589735" priority="1" type="highway.service" numLanes="1" speed="5.56" allow="pedestrian delivery bicycle">
        <lane index="0">
            <param key="origId" value="100469067" />
        </lane>
    </edge>
    <edge id="-100470145" from="1161473971" to="1447160645" priority="1" type="highway.footway" numLanes="1" speed="2.78" shape="3931.99,2799.45,312.21 3938.57,2798.22,311.55 3977.88,2786.72,308.62 3992.03,2781.15,307.87 4000.53,2776.44,307.61 4008.62,2770.37,307.57" width="2.00" allow="pedestrian bicycle">
        <lane index="0">
            <param key="origId" value="100470145" />
        </lane>
    </edge>
    <edge id="-100489326" from="1161689969" to="75789810" priority="1" type="highway.service" numLanes="1" speed="5.56" shape="3812.51,3006.04,296.59 3799.89,3001.03,297.78 3807.98,2980.62,299.6" allow="pedestrian delivery bicycle">
        <lane index="0">
            <param key="origId" value="100489326" />
        </lane>
    </edge>
    <edge id="-100489355" from="825731990" to="1161690235" priority="1" type="highway.service" numLanes="1" speed="5.56" allow="pedestrian delivery bicycle">
        <lane index="0">
            <param key="origId" value="100489355" />
        </lane>
    </edge>
    <edge id="-100489396#1" from="9677858195" to="cluster_100224184_10929271159_446755810" name="Schreiberstra&#223;e" priority="1" type="highway.footway" numLanes="1" speed="2.78" shape="4070.74,3274.93,277.05 4065.65,3286.15,276.56 4064.79,3294.06,276.34" width="2.00" allow="pedestrian bicycle">
        <lane index="0">
            <param key="origId" value="100489396" />
        </lane>
        <param key="origTo" value="10929271159" />
    </edge>
    <edge id="-100489396#2" from="446755811" to="9677858195" name="Schreiberstra&#223;e" priority="1" type="highway.footway" numLanes="1" speed="2.78" shape="4081.88,3250.67,278.56 4079.54,3255.56,278.22 4070.74,3274.93,277.05" width="2.00" allow="pedestrian bicycle">
        <lane index="0">
            <param key="origId" value="100489396" />
        </lane>
    </edge>
    <edge id="-100489396#3" from="446740789" to="446755811" name="Schreiberstra&#223;e" priority="1" type="highway.footway" numLanes="1" speed="2.78" width="2.00" allow="pedestrian bicycle">
        <lane index="0">
            <param key="origId" value="100489396" />
        </lane>
    </edge>
    <edge id="-10125759#0" from="cluster_6588101493_6588101494" to="cluster_266843390_414722772_682071" name="Hasenbergsteige" priority="1" type="highway.track" numLanes="1" speed="5.56" shape="2791.29,3560.62,460.48 2803.03,3562.75,460.51 2808.56,3564.71,460.51 2811.6,3566.82,460.52" allow="pedestrian motorcycle moped bicycle">
        <lane index="0">
            <param key="origId" value="10125759" />
        </lane>
        <param key="origFrom" value="6588101494" />
        <param key="origTo" value="682071" />
    </edge>
    <edge id="-10125759#1" from="245604458" to="cluster_6588101493_6588101494" name="Hasenbergsteige" priority="1" type="highway.track" numLanes="1" speed="5.56" shape="2277.36,3491.02,439.98 2430.16,3510.3,445.47 2613.14,3536.04,455.23 2669.12,3543.05,458.13 2773.34,3557.62,460.35 2791.29,3560.62,460.48" allow="pedestrian motorcycle moped bicycle">
        <lane index="0">
            <param key="origId" value="10125759" />
        </lane>
        <param key="origTo" value="6588101494" />
    </edge>
    <edge id="-1017605757" from="645186" to="266839132" name="R&#246;ckenwiesenstra&#223;e" priority="3" type="highway.residential" numLanes="1" speed="8.33" disallow="tram rail_urban rail rail_electric rail_fast ship">
        <lane index="0">
            <param key="origId" value="1017605757" />
        </lane>
    </edge>
    <edge id="-102534483" from="1184146917" to="2631705886" priority="1" type="highway.path" numLanes="1" speed="5.56" shape="2908.71,3191.22,390.41 2898.95,3181.41,391.27 2894.74,3174.63,391.14 2892.91,3169.21,390.7 2892.15,3163.26,389.93 2890.94,3147.06,387.07 2889.78,3140.88,385.79 2885.53,3135.5,384.78 2879.45,3135.23,385.04 2872.21,3136.46,385.71 2862.36,3138.05,386.59 2852.52,3140.96,387.74 2843.42,3143.6,388.55 2834.38,3148.66,389.85 2826.9,3155.91,391.59 2820.68,3163.31,393.15 2814.87,3175.67,395.49 2810.49,3184.94,396.9 2807.18,3195.04,398.02 2806.98,3202.26,398.65" width="2.00" allow="pedestrian bicycle">
        <lane index="0">
            <param key="origId" value="102534483" />
        </lane>
    </edge>
    <edge id="-102534484#0" from="130247304" to="cluster_130247041_4198570803" priority="1" type="highway.path" numLanes="1" speed="5.56" shape="2762.71,3226.12,396.69 2752.03,3217.4,393.71 2746.3,3207.43,391.16 2744.73,3199.49,389.56 2743.48,3195.79,388.66" width="2.00" allow="pedestrian bicycle">
        <lane index="0">
            <param key="origId" value="102534484" />
        </lane>
        <param key="origTo" value="4198570803" />
    </edge>
    <edge id="-102534484#1" from="2631705886" to="130247304" priority="1" type="highway.path" numLanes="1" speed="5.56" shape="2806.98,3202.26,398.65 2796.99,3220.01,399.54 2792.68,3223.87,399.55 2786.73,3227.7,399.46 2773.52,3228.75,398.46 2762.71,3226.12,396.69" width="2.00" allow="pedestrian bicycle">
        <lane index="0">
            <param key="origId" value="102534484" />
        </lane>
    </edge>
    <edge id="-102534486#0" from="1184146917" to="2631705886" priority="1" type="highway.path" numLanes="1" speed="5.56" shape="2908.71,3191.22,390.41 2890.16,3190.2,393.07 2870.73,3189.3,395.11 2851.41,3190.02,396.81 2836.17,3192.78,397.66 2823.6,3195.91,398.09 2806.98,3202.26,398.65" width="2.00" allow="pedestrian bicycle">
        <lane index="0">
            <param key="origId" value="102534486 102534484" />
        </lane>
    </edge>
    <edge id="-102534486#1" from="130247318" to="1184146917" priority="1" type="highway.path" numLanes="1" speed="5.56" shape="2943.09,3204.82,383.69 2915.48,3193.89,389.3 2908.71,3191.22,390.41" width="2.00" allow="pedestrian bicycle">
        <lane index="0">
            <param key="origId" value="102534486" />
        </lane>
    </edge>
    <edge id="-1028613550" from="9483100152" to="9483100151" priority="1" type="highway.service" numLanes="1" speed="5.56" allow="pedestrian delivery bicycle">
        <lane index="0">
            <param key="origId" value="1028613550" />
        </lane>
    </edge>
    <edge id="-1035998334" from="2187590289" to="9545099221" priority="1" type="highway.path" numLanes="1" speed="5.56" shape="4321.27,3924.79,337.49 4329.14,3922.96,338.33 4332.38,3922.78,338.59 4335.55,3923.89,338.72 4339.61,3926.57,338.74 4354.14,3936.92,338.25" width="2.00" allow="pedestrian bicycle">
        <lane index="0">
            <param key="origId" value="1035998334" />
        </lane>
    </edge>
    <edge id="-1042411204" from="9595642861" to="9595642862" priority="1" type="highway.path" numLanes="1" speed="5.56" width="2.00" allow="pedestrian bicycle">
        <lane index="0">
            <param key="origId" value="1042411204" />
        </lane>
    </edge>
    <edge id="-104868696" from="1209368156" to="1209368002" priority="1" type="highway.service" numLanes="1" speed="5.56" allow="pedestrian delivery bicycle">
        <lane index="0">
            <param key="origId" value="104868696" />
        </lane>
    </edge>
    <edge id="-104868724" from="1209367555" to="cluster_10029204577_268986937" priority="1" type="highway.service" numLanes="1" speed="5.56" shape="2851.13,2895.78,324.29 2867.89,2929.28,328.6" allow="pedestrian delivery bicycle">
        <lane index="0">
            <param key="origId" value="104868724" />
        </lane>
        <param key="origTo" value="268986937" />
    </edge>
    <edge id="-104868731#0" from="1209368002" to="1209367881" priority="1" type="highway.service" numLanes="1" speed="5.56" shape="3185.8,3811.26,378.72 3182.25,3835.31,374.34 3168.27,3866.01,371.56 3164.43,3872.67,371.39 3151.46,3878.87,371.94" allow="pedestrian delivery bicycle">
        <lane index="0">
            <param key="origId" value="104868731" />
        </lane>
    </edge>
    <edge id="-104868731#1" from="1209367897" to="1209368002" priority="1" type="highway.service" numLanes="1" speed="5.56" allow="pedestrian delivery bicycle">
        <lane index="0">
            <param key="origId" value="104868731" />
        </lane>
    </edge>
    <edge id="-104868737#0" from="9094987519" to="cluster_21288849_3228719859" priority="1" type="highway.service" numLanes="1" speed="5.56" shape="3017.67,4011.97,373.91 3066.99,3963.77,374.99 3070.35,3960.47,374.87 3082.71,3959.62,373.63" allow="pedestrian delivery bicycle">
        <lane index="0">
            <param key="origId" value="104868737" />
        </lane>
        <param key="origTo" value="21288849" />
    </edge>
    <edge id="-104868737#1" from="1209367928" to="9094987519" priority="1" type="highway.service" numLanes="1" speed="5.56" allow="pedestrian delivery bicycle">
        <lane index="0">
            <param key="origId" value="104868737" />
        </lane>
    </edge>
    <edge id="-104892764" from="1209565411" to="1209565738" priority="1" type="highway.service" numLanes="1" speed="5.56" shape="3768.81,3660.97,357.53 3737.83,3642.87,358.84 3735.36,3638.21,358.32 3736.11,3633.28,357.17 3738.45,3629.65,356.01 3743.55,3628.79,354.97 3751.7,3628.81,353.6 3755.64,3627.07,352.6 3757.69,3623.01,351.46 3756.25,3618.36,350.77 3745.19,3605.01,349.83" allow="pedestrian delivery bicycle">
        <lane index="0">
            <param key="origId" value="104892764" />
        </lane>
    </edge>
    <edge id="-104892775" from="1209565569" to="8208988678" priority="1" type="highway.service" numLanes="1" speed="5.56" shape="3607.22,3303.23,293.51 3581.28,3342.34,299.36 3578.12,3346.07,300.04 3573.04,3348.54,300.6 3566.91,3349.59,300.99 3561.01,3348.4,301.04 3554.4,3346.09,300.99 3519.22,3327.86,300.51 3516.71,3329.89,300.98 3512.15,3333.58,301.87" allow="pedestrian delivery bicycle">
        <lane index="0">
            <param key="origId" value="104892775" />
        </lane>
    </edge>
    <edge id="-104892797" from="1209565430" to="1209565855" priority="1" type="highway.track" numLanes="1" speed="5.56" shape="3765.27,3731.21,369.78 3762.46,3725.4,369.96 3737.46,3706.63,371.12 3720.65,3695.31,371.51 3708.13,3693.95,372.77 3700.23,3697.35,374.02" allow="pedestrian motorcycle moped bicycle">
        <lane index="0">
            <param key="origId" value="104892797" />
        </lane>
    </edge>
    <edge id="-1051834093" from="9665908710" to="cluster_490573_9665908704" priority="1" type="highway.path" numLanes="1" speed="5.56" shape="3085.33,2370.07,347.02 3094.24,2369.64,348.63 3106.5,2367.65,350.78 3134.81,2358.56,355.39 3167.95,2350.96,359.91 3199.0,2348.57,364.11 3224.73,2350.38,368.94 3252.73,2344.84,373.33 3288.02,2346.27,379.7 3317.2,2345.65,384.3 3355.56,2337.57,389.33 3384.95,2333.89,392.79 3410.87,2335.12,395.65 3445.96,2333.91,399.62 3478.04,2327.56,402.46" width="2.00" allow="pedestrian bicycle">
        <lane index="0">
            <param key="origId" value="1051834093" />
        </lane>
        <param key="origTo" value="9665908704" />
    </edge>
    <edge id="-1053083768" from="9677858192" to="9677858177" priority="1" type="highway.path" numLanes="1" speed="5.56" width="2.00" allow="pedestrian bicycle">
        <lane index="0">
            <param key="origId" value="1053083768" />
        </lane>
    </edge>
    <edge id="-1058067779#0" from="286309413" to="286309430" priority="1" type="highway.path" numLanes="1" speed="5.56" width="2.00" allow="pedestrian bicycle">
        <lane index="0">
            <param key="origId" value="1058067779" />
        </lane>
    </edge>
    <edge id="-1058067779#1" from="286309414" to="286309413" priority="1" type="highway.path" numLanes="1" speed="5.56" width="2.00" allow="pedestrian bicycle">
        <lane index="0">
            <param key="origId" value="1058067779" />
        </lane>
    </edge>
    <edge id="-1059655527" from="9735600813" to="9735600814" priority="1" type="highway.path" numLanes="1" speed="5.56" width="2.00" allow="pedestrian bicycle">
        <lane index="0">
            <param key="origId" value="1059655527" />
        </lane>
    </edge>
    <edge id="-106448137#0" from="540338488" to="69451977" name="Immenhofer Stra&#223;e" priority="11" type="highway.secondary" numLanes="1" speed="11.11" disallow="tram rail_urban rail rail_electric rail_fast ship">
        <lane index="0">
            <param key="origId" value="106448137" />
        </lane>
    </edge>
    <edge id="-106448137#1" from="cluster_5724923063_69451978" to="540338488" name="Immenhofer Stra&#223;e" priority="11" type="highway.secondary" numLanes="1" speed="11.11" shape="5224.69,3743.43,286.63 5214.45,3785.6,284.88" disallow="tram rail_urban rail rail_electric rail_fast ship">
        <lane index="0">
            <param key="origId" value="106448137" />
        </lane>
        <param key="origFrom" value="5724923063" />
    </edge>
    <edge id="-106448137#3" from="5185631372" to="cluster_5724923063_69451978" name="Immenhofer Stra&#223;e" priority="11" type="highway.secondary" numLanes="1" speed="11.11" shape="5231.39,3714.55,287.22 5226.83,3734.16,286.89" disallow="tram rail_urban rail rail_electric rail_fast ship">
        <lane index="0">
            <param key="origId" value="106448137" />
        </lane>
        <param key="origTo" value="69451978" />
    </edge>
    <edge id="-1069091171" from="9813312751" to="265633162" name="R&#246;merstra&#223;e" priority="3" type="highway.residential" numLanes="1" speed="13.89" disallow="tram rail_urban rail rail_electric rail_fast ship">
        <lane index="0">
            <param key="origId" value="1069091171" />
        </lane>
    </edge>
    <edge id="-1077048343#0" from="265633158" to="69454788" name="Immenhofer Stra&#223;e" priority="3" type="highway.residential" numLanes="1" speed="8.33" shape="5327.71,3068.12,331.55 5331.32,3093.37,327.69 5332.1,3110.56,326.09 5329.54,3176.7,319.81 5329.4,3180.27,319.47" disallow="tram rail_urban rail rail_electric rail_fast ship">
        <lane index="0">
            <param key="origId" value="1077048343 9264306" />
        </lane>
    </edge>
    <edge id="-1077048343#1" from="265633156" to="265633158" name="Immenhofer Stra&#223;e" priority="3" type="highway.residential" numLanes="1" speed="8.33" disallow="tram rail_urban rail rail_electric rail_fast ship">
        <lane index="0">
            <param key="origId" value="1077048343" />
        </lane>
    </edge>
    <edge id="-1077054744" from="482672700" to="cluster_247247161_759603389" priority="1" type="highway.service" numLanes="1" speed="5.56" shape="5718.98,3756.0,342.3 5709.11,3771.64,339.22 5697.32,3772.31,338.65 5684.24,3766.67,338.99 5668.53,3750.33,340.88 5630.8,3724.41,340.39 5623.43,3719.35,339.94 5620.16,3717.1,339.72" allow="pedestrian delivery bicycle">
        <lane index="0">
            <param key="origId" value="1077054744 64820892" />
        </lane>
        <param key="origTo" value="759603389" />
    </edge>
    <edge id="-1077109463#0" from="120519272" to="1348442636" name="Hohenheimer Stra&#223;e" priority="3" type="highway.residential" numLanes="1" speed="8.33" shape="5814.38,3840.45,334.43 5811.33,3852.02,332.38 5803.8,3864.45,329.52 5795.05,3876.11,326.77 5766.19,3912.77,319.51 5760.82,3917.0,318.62" disallow="tram rail_urban rail rail_electric rail_fast ship">
        <lane index="0">
            <param key="origId" value="1077109463 317267355" />
        </lane>
    </edge>
    <edge id="-1077109463#1" from="120519274" to="120519272" name="Hohenheimer Stra&#223;e" priority="3" type="highway.residential" numLanes="1" speed="8.33" disallow="tram rail_urban rail rail_electric rail_fast ship">
        <lane index="0">
            <param key="origId" value="1077109463" />
        </lane>
    </edge>
    <edge id="-108149737#0" from="660019" to="490727" name="Rotenwaldstra&#223;e" priority="11" type="highway.secondary" numLanes="1" speed="13.89" shape="3104.8,3753.94,398.39 3118.58,3750.04,397.42 3133.95,3748.29,396.18 3154.99,3750.7,395.01 3186.36,3758.1,395.16 3200.9,3763.73,394.41 3209.13,3769.29,392.99" disallow="tram rail_urban rail rail_electric rail_fast ship">
        <lane index="0" changeLeft="authority" changeRight="authority">
            <param key="origId" value="108149737" />
        </lane>
        <param key="ref" value="L 1015" />
    </edge>
    <edge id="-108149737#1" from="660020" to="660019" name="Rotenwaldstra&#223;e" priority="11" type="highway.secondary" numLanes="1" speed="13.89" shape="3060.15,3815.53,397.29 3065.68,3795.61,399.26 3071.64,3783.27,399.84 3078.29,3773.77,399.79 3085.47,3766.5,399.42 3099.93,3756.35,398.65 3104.8,3753.94,398.39" disallow="tram rail_urban rail rail_electric rail_fast ship">
        <lane index="0" changeLeft="authority" changeRight="authority">
            <param key="origId" value="108149737" />
        </lane>
        <param key="ref" value="L 1015" />
    </edge>
    <edge id="-1082150188" from="9917551204" to="8327972017" priority="1" type="highway.path" numLanes="1" speed="5.56" shape="6014.22,2184.23,481.72 6028.4,2157.91,480.98 6012.43,2156.1,481.37 5994.35,2139.84,481.75" width="2.00" allow="pedestrian bicycle">
        <lane index="0">
            <param key="origId" value="1082150188" />
        </lane>
    </edge>
    <edge id="-1082150189#1" from="9917551207" to="cluster_1872536744_2450415821_282572226_9917551208_#1more" priority="1" type="highway.service" numLanes="1" speed="5.56" shape="6079.0,2184.12,480.66 6109.43,2126.86,478.34" allow="pedestrian delivery bicycle">
        <lane index="0">
            <param key="origId" value="1082150189" />
        </lane>
        <param key="origTo" value="9917551208" />
    </edge>
    <edge id="-1083283316" from="9927588848" to="9927588851" priority="1" type="highway.service" numLanes="1" speed="5.56" shape="5938.18,2198.0,483.7 5906.51,2174.36,484.23 5897.44,2187.3,484.11 5928.36,2210.61,483.82" allow="pedestrian delivery bicycle">
        <lane index="0">
            <param key="origId" value="1083283316" />
        </lane>
    </edge>
    <edge id="-10862820#0" from="1460504252" to="12722793" name="Schlosserstra&#223;e" priority="3" type="highway.residential" numLanes="1" speed="8.33" disallow="tram rail_urban rail rail_electric rail_fast ship">
        <lane index="0">
            <param key="origId" value="10862820" />
        </lane>
    </edge>
    <edge id="-10862820#1" from="1397648471" to="1460504252" name="Schlosserstra&#223;e" priority="3" type="highway.residential" numLanes="1" speed="8.33" disallow="tram rail_urban rail rail_electric rail_fast ship">
        <lane index="0">
            <param key="origId" value="10862820" />
        </lane>
    </edge>
    <edge id="-10864063" from="96524615" to="18241666" name="Neue Weinsteige" priority="11" type="highway.secondary" numLanes="2" speed="11.11" shape="5458.76,3481.26,317.03 5453.49,3481.04,315.89 5444.84,3481.51,314.05" disallow="tram rail_urban rail rail_electric rail_fast ship">
        <lane index="0">
            <param key="origId" value="10864063" />
        </lane>
        <lane index="1">
            <param key="origId" value="10864063" />
        </lane>
    </edge>
    <edge id="-10864092#0" from="540203814" to="69451977" name="Immenhofer Stra&#223;e" priority="11" type="highway.secondary" numLanes="1" speed="11.11" disallow="tram rail_urban rail rail_electric rail_fast ship">
        <lane index="0">
            <param key="origId" value="10864092" />
        </lane>
    </edge>
    <edge id="-10864092#2" from="69451976" to="540203814" name="Immenhofer Stra&#223;e" priority="11" type="highway.secondary" numLanes="1" speed="11.11" shape="5190.9,3892.97,278.76 5192.63,3885.38,279.26 5197.36,3864.69,280.68" disallow="tram rail_urban rail rail_electric rail_fast ship">
        <lane index="0">
            <param key="origId" value="10864092" />
        </lane>
    </edge>
    <edge id="-10864092#5" from="69451975" to="69451976" name="Immenhofer Stra&#223;e" priority="11" type="highway.secondary" numLanes="1" speed="11.11" shape="5170.07,3984.35,272.95 5172.22,3974.89,273.6 5173.1,3971.22,273.84 5190.9,3892.97,278.76" disallow="tram rail_urban rail rail_electric rail_fast ship">
        <lane index="0">
            <param key="origId" value="10864092" />
        </lane>
    </edge>
    <edge id="-10864199" from="96525988" to="96518345" name="Wei&#223;enburgstra&#223;e" priority="3" type="highway.residential" numLanes="1" speed="8.33" width="1.00" allow="bicycle">
        <lane index="0">
            <param key="origId" value="10864199" />
        </lane>
    </edge>
    <edge id="-10864231#0" from="518999377" to="20275934" name="Wei&#223;enburgstra&#223;e" priority="3" type="highway.residential" numLanes="1" speed="8.33" shape="5406.64,4004.76,283.24 5444.31,3990.98,285.73 5459.14,3985.54,286.64 5467.47,3981.02,287.31" width="1.00" allow="bicycle">
        <lane index="0">
            <param key="origId" value="10864231 1168886515" />
        </lane>
    </edge>
    <edge id="-10864231#1" from="96525989" to="518999377" name="Wei&#223;enburgstra&#223;e" priority="3" type="highway.residential" numLanes="1" speed="8.33" shape="5368.73,4022.89,279.71 5382.03,4015.13,281.12 5406.64,4004.76,283.24" width="1.00" allow="bicycle">
        <lane index="0">
            <param key="origId" value="10864231" />
        </lane>
    </edge>
    <edge id="-10864283#0" from="96525989" to="96527299" name="Mozartstra&#223;e" priority="3" type="highway.residential" numLanes="1" speed="8.33" disallow="tram rail_urban rail rail_electric rail_fast ship">
        <lane index="0">
            <param key="origId" value="10864283" />
        </lane>
    </edge>
    <edge id="-10864283#1" from="301220544" to="96525989" name="Mozartstra&#223;e" priority="3" type="highway.residential" numLanes="1" speed="8.33" disallow="tram rail_urban rail rail_electric rail_fast ship">
        <lane index="0">
            <param key="origId" value="10864283" />
        </lane>
    </edge>
    <edge id="-10864283#2" from="519216504" to="301220544" name="Mozartstra&#223;e" priority="3" type="highway.residential" numLanes="1" speed="8.33" disallow="tram rail_urban rail rail_electric rail_fast ship">
        <lane index="0">
            <param key="origId" value="10864283" />
        </lane>
    </edge>
    <edge id="-10864283#3" from="96527301" to="519216504" name="Mozartstra&#223;e" priority="3" type="highway.residential" numLanes="1" speed="8.33" disallow="tram rail_urban rail rail_electric rail_fast ship">
        <lane index="0">
            <param key="origId" value="10864283" />
        </lane>
    </edge>
    <edge id="-10864283#4" from="69451976" to="96527301" name="Mozartstra&#223;e" priority="3" type="highway.residential" numLanes="1" speed="8.33" shape="5190.9,3892.97,278.76 5194.86,3895.89,278.74 5271.7,3952.04,280.46" disallow="tram rail_urban rail rail_electric rail_fast ship">
        <lane index="0">
            <param key="origId" value="10864283" />
        </lane>
    </edge>
    <edge id="-10864736#0" from="96527301" to="96532492" name="Mittelstra&#223;e" priority="3" type="highway.residential" numLanes="1" speed="8.33" disallow="tram rail_urban rail rail_electric rail_fast ship">
        <lane index="0">
            <param key="origId" value="10864736" />
        </lane>
    </edge>
    <edge id="-10864736#1" from="540203821" to="96527301" name="Mittelstra&#223;e" priority="3" type="highway.residential" numLanes="1" speed="8.33" disallow="tram rail_urban rail rail_electric rail_fast ship">
        <lane index="0">
            <param key="origId" value="10864736" />
        </lane>
    </edge>
    <edge id="-10864736#2" from="519273776" to="540203821" name="Mittelstra&#223;e" priority="3" type="highway.residential" numLanes="1" speed="8.33" disallow="tram rail_urban rail rail_electric rail_fast ship">
        <lane index="0">
            <param key="origId" value="10864736" />
        </lane>
    </edge>
    <edge id="-10864736#3" from="519273783" to="519273776" name="Mittelstra&#223;e" priority="3" type="highway.residential" numLanes="1" speed="8.33" disallow="tram rail_urban rail rail_electric rail_fast ship">
        <lane index="0">
            <param key="origId" value="10864736" />
        </lane>
    </edge>
    <edge id="-10864736#4" from="96532493" to="519273783" name="Mittelstra&#223;e" priority="3" type="highway.residential" numLanes="1" speed="8.33" shape="5336.86,3859.76,292.52 5336.46,3863.36,292.28 5333.57,3868.33,291.8 5309.06,3900.47,287.51" disallow="tram rail_urban rail rail_electric rail_fast ship">
        <lane index="0">
            <param key="origId" value="10864736" />
        </lane>
    </edge>
    <edge id="-10864773" from="518927383" to="cluster_20275932_518929998" name="Falbenhennenstra&#223;e" priority="1" type="highway.path" numLanes="1" speed="5.56" shape="5384.62,3873.24,292.92 5391.33,3875.67,292.74 5397.29,3871.74,293.09" width="2.00" allow="pedestrian bicycle">
        <lane index="0">
            <param key="origId" value="10864773" />
        </lane>
        <param key="origTo" value="518929998" />
    </edge>
    <edge id="-1089992087" from="cluster_235915847_235917037_415897920" to="9984571176" priority="1" type="highway.path" numLanes="1" speed="5.56" shape="5841.59,3019.92,448.57 5828.08,3021.57,445.94 5817.63,3022.53,443.7 5805.49,3025.74,440.79 5794.46,3025.61,438.07 5797.78,3035.36,438.74 5801.02,3042.14,439.42 5809.49,3043.44,441.39 5816.19,3044.34,442.89 5820.42,3046.37,443.75" width="2.00" allow="pedestrian bicycle">
        <lane index="0">
            <param key="origId" value="1089992087" />
        </lane>
        <param key="origFrom" value="235915847" />
    </edge>
    <edge id="-1090683497#0" from="9990035472" to="100226223" priority="1" type="highway.service" numLanes="1" speed="5.56" allow="pedestrian delivery bicycle">
        <lane index="0">
            <param key="origId" value="1090683497" />
        </lane>
    </edge>
    <edge id="-1090683497#1" from="9990035474" to="9990035472" priority="1" type="highway.service" numLanes="1" speed="5.56" shape="5377.8,3504.66,303.22 5372.47,3506.73,302.64 5370.48,3518.26,301.97" allow="pedestrian delivery bicycle">
        <lane index="0">
            <param key="origId" value="1090683497" />
        </lane>
    </edge>
    <edge id="-1090683500" from="9990035479" to="9990035478" priority="1" type="highway.service" numLanes="1" speed="5.56" allow="pedestrian delivery bicycle">
        <lane index="0">
            <param key="origId" value="1090683500" />
        </lane>
    </edge>
    <edge id="-1090684378#0" from="9990053236" to="cluster_1717053027_9990053234" priority="1" type="highway.service" numLanes="1" speed="5.56" shape="5171.53,3442.12,297.5 5144.99,3428.74,297.58" allow="pedestrian delivery bicycle">
        <lane index="0">
            <param key="origId" value="1090684378" />
        </lane>
        <param key="origTo" value="9990053234" />
    </edge>