<nodes xmlns:xsi="http://www.w3.org/2001/XMLSchema-instance" version="1.16" xsi:noNamespaceSchemaLocation="http://sumo.dlr.de/xsd/nodes_file.xsd">
    <location netOffset="-507701.51,-5397694.17" convBoundary="0.00,0.00,6976.10,4531.02" origBoundary="9.104768,48.732112,9.199613,48.785059" projParameter="+proj=utm +zone=32 +ellps=WGS84 +datum=WGS84 +units=m +no_defs" />

    <node id="10006316683" x="4713.39" y="3274.45" type="priority" z="313.77" />
    <node id="10006316685" x="4733.24" y="3263.63" type="priority" z="314.52" />
    <node id="10006316687" x="4716.86" y="3257.35" type="priority" z="316.41" />
    <node id="10006316688" x="4730.49" y="3264.73" type="priority" z="314.53" />
    <node id="10006316689" x="4736.35" y="3236.72" type="priority" z="318.2" />
    <node id="10006316690" x="4745.98" y="3245.53" type="priority" z="315.95" />
    <node id="100208024" x="5042.15" y="3641.06" type="priority" z="279.2" />
    <node id="100214532" x="4978.95" y="3461.32" type="right_before_left" z="289.42" />
    <node id="100214533" x="5035.78" y="3473.35" type="right_before_left" z="291.44" />
    <node id="100214535" x="5115.81" y="3490.48" type="right_before_left" z="292.05" />
    <node id="100215583" x="5163.16" y="3388.62" type="right_before_left" z="301.55" />
    <node id="100215584" x="5203.26" y="3305.63" type="right_before_left" z="307.91" />
    <node id="100215585" x="5218.59" y="3236.62" type="priority" z="314.15" />
    <node id="100215605" x="4956.11" y="3215.98" type="right_before_left" z="301.55" />
    <node id="100215607" x="4889.23" y="3242.34" type="right_before_left" z="300.4" />
    <node id="100215609" x="4829.41" y="3317.71" type="right_before_left" z="295.8" />
    <node id="100215978" x="5001.67" y="3354.70" type="right_before_left" z="295.3" />
    <node id="100220445" x="5167.29" y="3848.90" type="right_before_left" z="279.91" />
    <node id="100220916" x="5133.97" y="3785.58" type="right_before_left" z="278.18" />
    <node id="100221638" x="5365.63" y="3659.93" type="right_before_left" z="300.72" />
    <node id="100222001" x="5324.76" y="3592.44" type="right_before_left" z="296.81" />
    <node id="100222579" x="4476.44" y="3362.73" type="right_before_left" z="286.22" />
    <node id="100225117" x="3895.59" y="3373.96" type="right_before_left" z="282.54" />
    <node id="100225887" x="4388.64" y="3283.40" type="priority" z="292.43" />
    <node id="100226223" x="5341.88" y="3514.25" type="priority" z="300.0" />
    <node id="100226227" x="5342.55" y="3419.53" type="right_before_left" z="305.0" />
    <node id="10029204574" x="2914.46" y="2907.94" type="right_before_left" z="326.39" />
    <node id="10029204576" x="2922.92" y="2954.95" type="dead_end" z="335.38" />
    <node id="10029204580" x="2907.54" y="2958.76" type="dead_end" z="335.76" />
    <node id="10029204581" x="2860.60" y="2940.32" type="right_before_left" z="329.69" />
    <node id="10029204586" x="2890.73" y="2973.50" type="dead_end" z="337.18" />
    <node id="10029234211" x="3405.81" y="3383.90" type="right_before_left" z="325.52" />
    <node id="10029234212" x="3434.35" y="3344.25" type="dead_end" z="313.06" />
    <node id="10029234213" x="3390.40" y="3364.25" type="right_before_left" z="323.17" />
    <node id="10029234214" x="3414.89" y="3324.02" type="dead_end" z="311.81" />
    <node id="10029255427" x="3064.71" y="2898.57" type="right_before_left" z="315.06" />
    <node id="10029255429" x="3046.53" y="2942.49" type="dead_end" z="327.33" />
    <node id="10029267517" x="2729.86" y="2889.69" type="dead_end" z="339.15" />
    <node id="10029267520" x="2732.54" y="2852.69" type="dead_end" z="337.94" />
    <node id="10029269722" x="3792.46" y="3413.96" type="right_before_left" z="300.91" />
    <node id="10029269724" x="3796.95" y="3380.49" type="dead_end" z="292.52" />
    <node id="10029269725" x="3812.71" y="3386.03" type="dead_end" z="292.65" />
    <node id="10029269726" x="3781.90" y="3373.07" type="dead_end" z="292.03" />
    <node id="10039047966" x="3224.19" y="3795.01" type="right_before_left" z="384.96" />
    <node id="10039047972" x="3241.86" y="3764.25" type="dead_end" z="395.27" />
    <node id="10039047973" x="3269.59" y="3763.28" type="dead_end" z="395.5" />
    <node id="10039047974" x="3245.25" y="3764.12" type="dead_end" z="395.32" />
    <node id="10039047975" x="3248.78" y="3749.81" type="dead_end" z="399.5" />
    <node id="10039047977" x="3229.54" y="3747.18" type="dead_end" z="400.5" />
    <node id="10039047979" x="3281.61" y="3751.23" type="dead_end" z="398.7" />
    <node id="10126318019" x="3824.48" y="1733.31" type="priority" z="450.62" />
    <node id="10126318024" x="3805.46" y="1688.96" type="priority" z="449.48" />
    <node id="1015109448" x="2871.74" y="3280.19" type="rail_signal" z="400.39" />
    <node id="1015110415" x="3105.77" y="3896.56" type="rail_signal" z="375.38" />
    <node id="10173016755" x="5569.67" y="3874.79" type="dead_end" z="305.93" />
    <node id="10173023289" x="5674.36" y="3951.38" type="dead_end" z="309.6" />
    <node id="10173025312" x="5699.42" y="3880.03" type="priority" z="320.23" />
    <node id="10173053816" x="5716.61" y="3892.88" type="dead_end" z="318.78" />
    <node id="10173055293" x="5706.04" y="3901.38" type="dead_end" z="317.21" />
    <node id="10173055294" x="5703.61" y="3934.56" type="priority" z="312.97" />
    <node id="10173055295" x="5696.46" y="3906.88" type="priority" z="316.23" />
    <node id="10180152006" x="3504.01" y="3325.99" type="priority" z="301.62" />
    <node id="10203798313" x="3386.37" y="3738.56" type="priority" z="404.19" />
    <node id="10203798314" x="3401.57" y="3842.81" type="priority" z="377.27" />
    <node id="10203798315" x="3395.72" y="3894.42" type="priority" z="362.06" />
    <node id="10204161963" x="3339.32" y="4043.50" type="priority" z="346.34" />
    <node id="10204161964" x="3342.87" y="4033.04" type="priority" z="346.5" />
    <node id="10204161965" x="3337.33" y="4048.48" type="priority" z="346.31" />
    <node id="10204161966" x="3386.35" y="3741.67" type="priority" z="403.6" />
    <node id="10204161967" x="3386.84" y="3788.28" type="priority" z="391.74" />
    <node id="10204161968" x="3389.08" y="3791.90" type="priority" z="390.87" />
    <node id="10204161969" x="3404.88" y="3815.40" type="priority" z="385.29" />
    <node id="10204161970" x="3409.42" y="3839.56" type="priority" z="378.62" />
    <node id="10204161971" x="3409.45" y="3833.87" type="priority" z="380.29" />
    <node id="10204161972" x="3391.49" y="3919.07" type="priority" z="356.44" />
    <node id="10204161974" x="3372.74" y="3931.47" type="priority" z="354.04" />
    <node id="10204161975" x="3372.96" y="3956.60" type="priority" z="351.01" />
    <node id="10204161976" x="3373.15" y="3966.70" type="priority" z="349.99" />
    <node id="10208322046" x="4996.76" y="4082.34" type="priority" z="260.09" />
    <node id="10235585630" x="5940.87" y="1398.34" type="right_before_left" z="475.14" />
    <node id="10285759506" x="5629.22" y="3748.60" type="priority" z="335.86" />
    <node id="102881025" x="5730.33" y="3954.06" type="right_before_left" z="312.88" />
    <node id="102881026" x="5705.27" y="3960.31" type="priority" z="310.52" />
    <node id="102882270" x="5455.85" y="3789.86" type="dead_end" z="302.7" />
    <node id="102882272" x="5534.13" y="3925.26" type="right_before_left" z="296.71" />
    <node id="102882274" x="5625.84" y="4070.93" type="right_before_left" z="291.34" />
    <node id="102882280" x="6002.55" y="4530.95" type="priority" z="274.1" />
    <node id="102899401" x="5552.47" y="4115.69" type="priority" z="281.7" />
    <node id="102899649" x="5676.54" y="4035.70" type="priority" z="300.65" />
    <node id="10593811078" x="3571.13" y="2738.91" type="right_before_left" z="334.88" />
    <node id="106322543" x="5951.17" y="4090.00" type="priority" z="316.72" />
    <node id="10736999780" x="6144.04" y="1798.14" type="priority" z="477.1" />
    <node id="10799626" x="4344.19" y="3639.01" type="right_before_left" z="287.41" />
    <node id="10799642" x="4684.02" y="3841.17" type="priority" z="284.84" />
    <node id="10799652" x="4212.77" y="3250.96" type="traffic_light" tl="10799652" tlType="actuated" z="284.91" />
    <node id="10799654" x="4097.97" y="3199.22" type="traffic_light" tl="GS_10799654" tlType="actuated" z="282.12" />
    <node id="10799656" x="4702.70" y="3509.48" type="traffic_light" tl="10799656" tlType="actuated" z="276.04" />
    <node id="10833840668" x="5910.72" y="4109.31" type="dead_end" z="309.39" />
    <node id="10875846855" x="5766.54" y="3565.91" type="dead_end" z="373.66" />
    <node id="10875846856" x="5764.51" y="3567.03" type="dead_end" z="373.57" />
    <node id="10875846857" x="5752.92" y="3582.79" type="dead_end" z="371.43" />
    <node id="10875846858" x="5754.55" y="3583.46" type="dead_end" z="371.18" />
    <node id="10875846859" x="5755.26" y="3583.72" type="dead_end" z="371.07" />
    <node id="10875846868" x="5682.77" y="3710.95" type="dead_end" z="349.37" />
    <node id="10875846869" x="5775.28" y="3723.94" type="priority" z="345.97" />
    <node id="10875846884" x="5758.50" y="3581.58" type="dead_end" z="371.21" />
    <node id="10875846885" x="5754.79" y="3580.16" type="dead_end" z="371.78" />
    <node id="10875846891" x="5763.72" y="3610.44" type="dead_end" z="365.27" />
    <node id="10875846892" x="5764.33" y="3608.73" type="dead_end" z="365.55" />
    <node id="10875857009" x="5687.49" y="3614.57" type="priority" z="366.93" />
    <node id="10875857011" x="5690.11" y="3608.20" type="dead_end" z="367.99" />
    <node id="10875857014" x="5723.40" y="3591.46" type="right_before_left" z="371.49" />
    <node id="10875857015" x="5726.00" y="3593.46" type="priority" z="371.09" />
    <node id="10875857026" x="5737.41" y="3578.62" type="right_before_left" z="373.16" />
    <node id="10875857027" x="5738.34" y="3576.40" type="priority" z="373.51" />
    <node id="10876280206" x="5679.06" y="3720.85" type="priority" z="347.2" />
    <node id="10876280209" x="5677.82" y="3720.14" type="right_before_left" z="347.24" />
    <node id="10876280210" x="5680.95" y="3721.95" type="priority" z="347.12" />
    <node id="10876280212" x="5694.71" y="3707.79" type="priority" z="350.68" />
    <node id="10884483829" x="5771.68" y="3728.66" type="priority" z="345.28" />
    <node id="10929271154" x="4082.52" y="3309.35" type="dead_end" z="276.56" />
    <node id="10929271155" x="4092.52" y="3306.74" type="dead_end" z="277.14" />
    <node id="10929271156" x="4084.34" y="3310.13" type="dead_end" z="276.63" />
    <node id="10933809935" x="2903.72" y="3895.75" type="priority" z="409.6" />
    <node id="10951460918" x="2555.45" y="2652.10" type="priority" z="325.69" />
    <node id="1100598643" x="5292.44" y="1161.12" type="priority" z="434.57" />
    <node id="1102808911" x="2979.87" y="2468.15" type="priority" z="318.46" />
    <node id="1104487361" x="6144.21" y="1483.81" type="priority" z="471.71" />
    <node id="1104487401" x="6004.13" y="1803.62" type="right_before_left" z="477.03" />
    <node id="1104487410" x="5884.49" y="1734.60" type="priority" z="483.33" />
    <node id="1104487433" x="6121.76" y="1540.24" type="right_before_left" z="471.58" />
    <node id="1104883001" x="4718.85" y="1315.32" type="priority" z="462.67" />
    <node id="1104883296" x="4458.41" y="1270.13" type="dead_end" z="457.51" />
    <node id="1104883457" x="5137.13" y="1685.97" type="priority" z="456.23" />
    <node id="1104884300" x="5527.11" y="1984.68" type="priority" z="479.56" />
    <node id="1104884480" x="5581.74" y="2020.78" type="priority" z="481.84" />
    <node id="1104884690" x="5178.95" y="1705.19" type="priority" z="455.4" />
    <node id="1104924419" x="5739.67" y="1925.47" type="priority" z="484.18" />
    <node id="1104924838" x="5616.68" y="2083.71" type="priority" z="484.19" />
    <node id="1104924952" x="5563.26" y="2053.69" type="priority" z="482.24" />
    <node id="1104925141" x="5683.76" y="2026.12" type="priority" z="484.04" />
    <node id="1104925234" x="5703.71" y="1961.87" type="priority" z="483.48" />
    <node id="1104925260" x="5718.26" y="2053.39" type="priority" z="484.62" />
    <node id="11052216159" x="3996.90" y="3270.49" type="priority" z="276.83" />
    <node id="11052216160" x="4012.62" y="3232.32" type="priority" z="278.63" />
    <node id="11052216164" x="4497.36" y="3470.06" type="priority" z="273.56" />
    <node id="1105620140" x="4623.39" y="1781.32" type="priority" z="470.05" />
    <node id="1105620146" x="4785.06" y="1937.07" type="priority" z="471.43" />
    <node id="1105620212" x="4896.52" y="1720.14" type="priority" z="469.44" />
    <node id="1105620336" x="4885.74" y="1822.74" type="priority" z="471.56" />
    <node id="1105620373" x="4459.18" y="1836.62" type="priority" z="466.33" />
    <node id="1105620484" x="4878.05" y="2039.11" type="priority" z="466.26" />
    <node id="1105620503" x="4913.50" y="1811.27" type="right_before_left" z="469.33" />
    <node id="1105620568" x="4325.54" y="1786.11" type="priority" z="462.33" />
    <node id="1105620607" x="4143.03" y="1724.78" type="priority" z="461.97" />
    <node id="1105620853" x="4199.07" y="1744.86" type="priority" z="463.34" />
    <node id="1105621051" x="4185.88" y="1732.42" type="right_before_left" z="462.99" />
    <node id="1105621277" x="4890.68" y="1804.97" type="right_before_left" z="470.78" />
    <node id="1106027056" x="5572.42" y="3266.05" type="priority" z="385.18" />
    <node id="1106027625" x="5271.34" y="2095.19" type="right_before_left" z="482.37" />
    <node id="1106028345" x="4956.00" y="1891.85" type="priority" z="468.42" />
    <node id="1106028467" x="5214.34" y="2762.75" type="priority" z="407.12" />
    <node id="1106028734" x="4994.64" y="2001.59" type="right_before_left" z="471.3" />
    <node id="1106028790" x="5305.90" y="2042.87" type="priority" z="480.34" />
    <node id="1106028845" x="5147.78" y="2528.25" type="dead_end" z="440.35" />
    <node id="1106029214" x="5015.18" y="1974.60" type="priority" z="470.9" />
    <node id="1106029336" x="5239.57" y="2687.44" type="priority" z="425.15" />
    <node id="1106029359" x="5277.12" y="2120.34" type="priority" z="483.27" />
    <node id="1106029439" x="5259.68" y="2060.89" type="priority" z="480.71" />
    <node id="1106029517" x="5438.37" y="2142.41" type="priority" z="484.03" />
    <node id="1106029708" x="5259.74" y="2093.88" type="priority" z="482.15" />
    <node id="1106029718" x="4896.54" y="1946.16" type="priority" z="472.18" />
    <node id="1106062891" x="5363.16" y="1959.35" type="priority" z="475.11" />
    <node id="1106062921" x="5375.72" y="1914.35" type="priority" z="472.54" />
    <node id="1106062990" x="5411.04" y="1900.60" type="priority" z="472.66" />
    <node id="11061420732" x="3166.97" y="2828.36" type="priority" z="297.83" />
    <node id="11061420760" x="3523.12" y="3158.84" type="priority" z="287.02" />
    <node id="11061420761" x="3559.50" y="3176.03" type="priority" z="286.51" />
    <node id="11061420762" x="3555.00" y="3179.74" type="dead_end" z="286.82" />
    <node id="11061420763" x="3543.13" y="3196.75" type="priority" z="288.07" />
    <node id="11061420764" x="3547.02" y="3186.35" type="dead_end" z="287.41" />
    <node id="11061420765" x="3560.53" y="3175.17" type="right_before_left" z="286.45" />
    <node id="11061420776" x="3564.14" y="3248.45" type="priority" z="289.82" />
    <node id="1106391273" x="5060.74" y="2494.20" type="dead_end" z="437.92" />
    <node id="1106391489" x="4989.53" y="2366.68" type="dead_end" z="450.15" />
    <node id="11067440302" x="2981.84" y="2942.50" type="dead_end" z="331.63" />
    <node id="1109727748" x="4320.18" y="1549.23" type="priority" z="462.65" />
    <node id="1109727814" x="4369.85" y="1615.77" type="dead_end" z="463.13" />
    <node id="1109727994" x="4435.68" y="1646.99" type="priority" z="463.85" />
    <node id="1109728145" x="4274.14" y="1434.03" type="priority" z="457.86" />
    <node id="1109728400" x="4226.73" y="1445.51" type="priority" z="456.25" />
    <node id="1109728539" x="4381.15" y="1602.85" type="right_before_left" z="463.46" />
    <node id="1109728701" x="4256.26" y="1454.43" type="right_before_left" z="457.42" />
    <node id="1109728796" x="4474.10" y="1367.61" type="priority" z="459.08" />
    <node id="1109728950" x="4702.08" y="1012.17" type="priority" z="447.76" />
    <node id="1109751630" x="4483.88" y="1670.60" type="priority" z="467.43" />
    <node id="1109751698" x="4456.02" y="1607.03" type="right_before_left" z="465.06" />
    <node id="1109752006" x="4741.75" y="1021.62" type="priority" z="447.06" />
    <node id="1109752241" x="4497.91" y="1677.05" type="priority" z="468.52" />
    <node id="1111003234" x="4877.17" y="793.92" type="priority" z="436.48" />
    <node id="1111003249" x="5425.56" y="1109.61" type="priority" z="427.96" />
    <node id="1111003354" x="4735.89" y="763.49" type="priority" z="441.1" />
    <node id="1111003451" x="5432.85" y="1097.92" type="right_before_left" z="428.23" />
    <node id="1111003470" x="4962.44" y="1180.21" type="priority" z="454.82" />
    <node id="1111004420" x="5178.05" y="1290.60" type="dead_end" z="442.92" />
    <node id="1111038267" x="5359.11" y="949.96" type="priority" z="427.99" />
    <node id="1111038410" x="5287.97" y="976.45" type="priority" z="430.47" />
    <node id="1111038500" x="5419.26" y="1159.25" type="dead_end" z="428.93" />
    <node id="1113959977" x="4879.18" y="1342.79" type="priority" z="464.23" />
    <node id="1113960137" x="4832.99" y="1326.70" type="priority" z="463.84" />
    <node id="1113960327" x="4806.63" y="1220.15" type="dead_end" z="458.43" />
    <node id="1113961628" x="4945.11" y="1419.01" type="priority" z="466.12" />
    <node id="1113961716" x="4812.55" y="1192.73" type="dead_end" z="456.8" />
    <node id="1113961928" x="4892.52" y="1375.93" type="priority" z="465.33" />
    <node id="1113962138" x="4765.96" y="1235.74" type="dead_end" z="460.25" />
    <node id="1113962376" x="4693.79" y="1230.51" type="priority" z="460.33" />
    <node id="1113962741" x="4811.74" y="1195.62" type="dead_end" z="456.98" />
    <node id="1113962842" x="4808.98" y="1307.10" type="priority" z="462.94" />
    <node id="1113963662" x="4688.37" y="1265.17" type="priority" z="461.02" />
    <node id="1113963768" x="4772.00" y="1210.44" type="dead_end" z="458.85" />
    <node id="1113963976" x="4786.35" y="1185.97" type="dead_end" z="457.11" />
    <node id="1113964447" x="4923.98" y="1435.07" type="priority" z="466.96" />
    <node id="1113964540" x="4698.91" y="1299.18" type="priority" z="461.84" />
    <node id="1113964992" x="4722.33" y="1278.01" type="priority" z="461.93" />
    <node id="1114047619" x="4951.76" y="1417.19" type="priority" z="465.88" />
    <node id="1114047792" x="4978.70" y="1428.19" type="priority" z="465.13" />
    <node id="1114048076" x="4769.73" y="1467.66" type="priority" z="466.6" />
    <node id="1114048151" x="4848.98" y="1374.38" type="priority" z="465.62" />
    <node id="1114048371" x="4886.37" y="1389.96" type="priority" z="465.84" />
    <node id="1114048389" x="4764.04" y="1462.78" type="priority" z="466.37" />
    <node id="11144332843" x="5495.04" y="923.40" type="right_before_left" z="419.99" />
    <node id="1114887519" x="5200.29" y="1641.60" type="priority" z="451.94" />
    <node id="1114887745" x="4975.81" y="1694.04" type="priority" z="465.45" />
    <node id="1114888050" x="5223.06" y="1666.35" type="priority" z="453.07" />
    <node id="1114888986" x="5217.60" y="1669.46" type="right_before_left" z="453.3" />
    <node id="1114889255" x="4821.63" y="1474.94" type="priority" z="467.59" />
    <node id="1114889404" x="5233.93" y="1695.76" type="priority" z="454.71" />
    <node id="1114889783" x="4795.57" y="1458.93" type="right_before_left" z="467.29" />
    <node id="1114889809" x="4753.86" y="1439.48" type="priority" z="465.66" />
    <node id="1115318055" x="5073.91" y="1775.70" type="priority" z="460.99" />
    <node id="1115318178" x="5092.21" y="1790.33" type="priority" z="460.77" />
    <node id="1115318277" x="4804.53" y="1955.89" type="traffic_light" tl="joinedS_1115318277_1115318726_cluster_1105620230_1982091617" tlType="actuated" z="471.7" />
    <node id="1115318626" x="5128.25" y="1749.10" type="priority" z="458.42" />
    <node id="1115318726" x="4809.18" y="1950.62" type="traffic_light" tl="joinedS_1115318277_1115318726_cluster_1105620230_1982091617" tlType="actuated" z="472.29" />
    <node id="1115318948" x="5126.15" y="1779.18" type="priority" z="459.48" />
    <node id="1115318984" x="5044.27" y="1762.50" type="priority" z="462.06" />
    <node id="1115319113" x="4988.98" y="1812.98" type="priority" z="465.09" />
    <node id="1115319455" x="4899.65" y="1903.59" type="dead_end" z="472.08" />
    <node id="1115319497" x="4978.23" y="1849.09" type="priority" z="466.11" />
    <node id="1115319609" x="4703.18" y="1845.58" type="dead_end" z="471.91" />
    <node id="1115893263" x="4749.34" y="1784.49" type="priority" z="473.07" />
    <node id="1115961796" x="4268.65" y="1689.44" type="dead_end" z="464.4" />
    <node id="1115961810" x="4209.29" y="1726.36" type="priority" z="463.48" />
    <node id="1115962022" x="4248.68" y="1680.51" type="dead_end" z="464.24" />
    <node id="1115962039" x="4339.23" y="1717.66" type="right_before_left" z="463.01" />
    <node id="1116104978" x="4925.50" y="1631.09" type="priority" z="468.85" />
    <node id="1116105703" x="4896.18" y="1672.22" type="priority" z="469.4" />
    <node id="1116105882" x="4848.47" y="1771.25" type="priority" z="471.83" />
    <node id="1116105920" x="4944.45" y="1664.55" type="priority" z="467.41" />
    <node id="1116106149" x="4927.76" y="1660.29" type="priority" z="468.26" />
    <node id="1116106380" x="4718.10" y="1705.96" type="priority" z="471.0" />
    <node id="1116106922" x="4715.75" y="1679.07" type="priority" z="470.26" />
    <node id="1116107014" x="4847.46" y="1716.63" type="priority" z="471.02" />
    <node id="1116107116" x="4868.89" y="1798.68" type="priority" z="471.83" />
    <node id="1116845897" x="4001.15" y="1218.71" type="dead_end" z="452.64" />
    <node id="1116845948" x="3536.28" y="1126.96" type="dead_end" z="439.06" />
    <node id="1116846033" x="2854.01" y="728.76" type="dead_end" z="433.38" />
    <node id="1116846086" x="3935.66" y="1095.78" type="dead_end" z="450.7" />
    <node id="1116846498" x="3918.99" y="1137.09" type="dead_end" z="450.17" />
    <node id="1116846827" x="2919.01" y="749.00" type="right_before_left" z="434.5" />
    <node id="1116846939" x="3534.84" y="1199.77" type="priority" z="439.15" />
    <node id="1116846977" x="3574.33" y="1119.68" type="priority" z="440.22" />
    <node id="1116847524" x="3403.87" y="1095.75" type="right_before_left" z="431.55" />
    <node id="1116847782" x="3539.32" y="1145.27" type="priority" z="439.27" />
    <node id="11173615982" x="4544.36" y="3927.17" type="priority" z="312.78" />
    <node id="11173615988" x="4445.43" y="3989.11" type="dead_end" z="332.85" />
    <node id="11173615989" x="4443.18" y="3989.26" type="dead_end" z="333.03" />
    <node id="1117546601" x="3479.01" y="1156.37" type="priority" z="435.88" />
    <node id="111989902" x="5407.46" y="3725.69" type="priority" z="303.12" />
    <node id="111997160" x="5705.16" y="4000.87" type="dead_end" z="306.91" />
    <node id="11203370527" x="4197.27" y="3614.22" type="right_before_left" z="281.18" />
    <node id="11203370530" x="4181.15" y="3619.56" type="dead_end" z="281.47" />
    <node id="11203379631" x="4039.21" y="3611.22" type="dead_end" z="284.02" />
    <node id="11203439549" x="4091.49" y="3599.61" type="priority" z="279.75" />
    <node id="11203446979" x="4059.36" y="3605.38" type="dead_end" z="281.82" />
    <node id="11203457438" x="4040.52" y="3605.98" type="dead_end" z="283.42" />
    <node id="1122578991" x="2880.95" y="1371.46" type="dead_end" z="377.19" />
    <node id="1122579091" x="2862.10" y="1384.86" type="dead_end" z="379.26" />
    <node id="1122579162" x="2891.66" y="1401.06" type="dead_end" z="378.73" />
    <node id="1122579165" x="3798.61" y="1674.54" type="priority" z="448.99" />
    <node id="1122579169" x="3723.55" y="1589.00" type="priority" z="446.18" />
    <node id="1122579233" x="2890.36" y="1408.11" type="dead_end" z="379.34" />
    <node id="1122579352" x="2881.37" y="1373.98" type="dead_end" z="377.35" />
    <node id="1122579359" x="3673.48" y="1607.30" type="priority" z="439.85" />
    <node id="1122579364" x="2898.18" y="1350.85" type="dead_end" z="375.66" />
    <node id="1122579439" x="2935.96" y="1461.54" type="right_before_left" z="383.3" />
    <node id="1122579452" x="2919.06" y="1401.23" type="dead_end" z="378.5" />
    <node id="1122579499" x="2936.01" y="1452.88" type="priority" z="382.6" />
    <node id="1122579568" x="2873.46" y="1341.36" type="dead_end" z="375.48" />
    <node id="1122579577" x="2893.89" y="1339.75" type="dead_end" z="375.15" />
    <node id="1122579601" x="2925.78" y="1351.63" type="priority" z="377.15" />
    <node id="1122691521" x="3717.31" y="2247.23" type="right_before_left" z="403.57" />
    <node id="1122691537" x="3612.23" y="2159.93" type="right_before_left" z="406.29" />
    <node id="1122691630" x="3591.67" y="2287.74" type="right_before_left" z="404.18" />
    <node id="1122691761" x="3651.29" y="2444.73" type="right_before_left" z="403.16" />
    <node id="1122691829" x="3775.58" y="2178.55" type="right_before_left" z="409.71" />
    <node id="1122691848" x="3577.05" y="2225.95" type="right_before_left" z="404.9" />
    <node id="1122692330" x="3274.91" y="1385.18" type="priority" z="427.07" />
    <node id="1122692419" x="3795.15" y="2241.77" type="right_before_left" z="406.38" />
    <node id="1122692468" x="3774.04" y="2348.45" type="right_before_left" z="400.21" />
    <node id="1122692510" x="3736.89" y="2141.06" type="right_before_left" z="409.64" />
    <node id="1122692547" x="3635.87" y="2376.56" type="right_before_left" z="403.26" />
    <node id="1122692596" x="3572.89" y="2192.16" type="right_before_left" z="406.01" />
    <node id="1126218819" x="2964.91" y="1868.22" type="dead_end" z="389.81" />
    <node id="1126218829" x="2785.97" y="1788.74" type="dead_end" z="388.22" />
    <node id="1126219032" x="2519.56" y="1836.60" type="dead_end" z="378.47" />
    <node id="1126219078" x="3097.51" y="1939.50" type="priority" z="390.41" />
    <node id="1126219182" x="2704.88" y="1927.49" type="dead_end" z="389.24" />
    <node id="1126219567" x="2721.77" y="1955.44" type="dead_end" z="388.6" />
    <node id="1126992476" x="3285.53" y="3131.34" type="dead_end" z="304.47" />
    <node id="1126992827" x="3306.44" y="3044.69" type="dead_end" z="299.24" />
    <node id="1126993048" x="2924.94" y="2842.64" type="priority" z="316.07" />
    <node id="1126993206" x="3347.43" y="3048.29" type="dead_end" z="293.88" />
    <node id="1126993400" x="3316.23" y="3075.69" type="dead_end" z="298.95" />
    <node id="1126993488" x="3325.16" y="3070.31" type="dead_end" z="297.54" />
    <node id="1126993640" x="3268.86" y="3117.12" type="dead_end" z="306.17" />
    <node id="1126993712" x="3298.64" y="3142.51" type="dead_end" z="303.19" />
    <node id="1126993923" x="3304.72" y="3109.75" type="dead_end" z="301.62" />
    <node id="1126994189" x="3354.47" y="3078.03" type="dead_end" z="294.14" />
    <node id="1126994395" x="2884.30" y="2841.33" type="priority" z="319.33" />
    <node id="1126994421" x="3263.47" y="3156.90" type="dead_end" z="306.7" />
    <node id="1126994538" x="3343.31" y="3013.08" type="dead_end" z="293.21" />
    <node id="1126994898" x="3280.35" y="3067.56" type="dead_end" z="303.75" />
    <node id="1126994966" x="3275.53" y="3168.24" type="right_before_left" z="306.26" />
    <node id="1126995474" x="3344.80" y="3089.18" type="dead_end" z="295.76" />
    <node id="1126995510" x="3327.29" y="3029.54" type="dead_end" z="295.85" />
    <node id="1126995539" x="3246.58" y="3097.84" type="dead_end" z="308.61" />
    <node id="1126995579" x="3317.68" y="3119.97" type="dead_end" z="300.25" />
    <node id="1126995671" x="3293.30" y="3089.48" type="dead_end" z="302.59" />
    <node id="1127741085" x="4435.02" y="666.37" type="priority" z="447.12" />
    <node id="1127741943" x="4476.35" y="646.05" type="priority" z="448.01" />
    <node id="1127742394" x="4440.97" y="726.22" type="priority" z="446.46" />
    <node id="1128378755" x="4777.89" y="2469.65" type="priority" z="435.04" />
    <node id="1131264839" x="4535.31" y="3205.27" type="priority" z="324.48" />
    <node id="1131265240" x="4831.05" y="3162.57" type="dead_end" z="315.27" />
    <node id="1131265314" x="4300.57" y="2893.41" type="priority" z="313.62" />
    <node id="1131265870" x="4451.98" y="3227.03" type="priority" z="308.1" />
    <node id="1131265891" x="4285.33" y="2936.23" type="right_before_left" z="308.15" />
    <node id="1131266204" x="5021.75" y="2787.06" type="priority" fringe="inner" z="355.88">
        <param key="buffer_stop" value="true" />
    </node>
    <node id="1131266879" x="4870.38" y="3159.08" type="dead_end" z="311.94" />
    <node id="1131267862" x="4867.06" y="3153.63" type="dead_end" z="313.06" />
    <node id="1131267950" x="4402.04" y="3034.23" type="priority" z="323.58" />
    <node id="1131268039" x="4882.54" y="3145.79" type="dead_end" z="313.01" />
    <node id="11500455094" x="5648.45" y="3281.13" type="priority" z="408.65" />
    <node id="11510815935" x="2677.20" y="3109.42" type="priority" z="358.3" />
    <node id="1151481980" x="4290.32" y="3232.43" type="dead_end" z="292.1" />
    <node id="1151493345" x="4327.42" y="3246.92" type="dead_end" z="293.4" />
    <node id="1151493365" x="4330.28" y="3248.73" type="dead_end" z="293.35" />