<?xml version="1.0" encoding="UTF-8"?>

<!-- generated on 2024-02-02 20:52:54 by Eclipse SUMO netconvert Version 1.19.0
<configuration xmlns:xsi="http://www.w3.org/2001/XMLSchema-instance" xsi:noNamespaceSchemaLocation="http://sumo.dlr.de/xsd/netconvertConfiguration.xsd">

    <input>
        <sumo-net-file value="./StuttgartSouthModel/osm.net.xml"/>
    </input>

    <output>
        <plain-output-prefix value="./StuttgartSouthModel/plainfiles/PLAIN"/>
        <output.street-names value="true"/>
    </output>

    <processing>
        <geometry.min-radius.fix.railways value="false"/>
        <geometry.max-grade.fix value="false"/>
        <offset.disable-normalization value="true"/>
        <lefthand value="0"/>
    </processing>

    <junctions>
        <no-turnarounds value="true"/>
        <junctions.corner-detail value="5"/>
        <junctions.limit-turn-speed value="5.50"/>
        <rectangular-lane-cut value="0"/>
    </junctions>

    <pedestrian>
        <walkingareas value="0"/>
    </pedestrian>

</configuration>
-->

<tlLogics version="1.16" xmlns:xsi="http://www.w3.org/2001/XMLSchema-instance" xsi:noNamespaceSchemaLocation="http://sumo.dlr.de/xsd/tllogic_file.xsd">
    <tlLogic id="10799652" type="actuated" programID="0" offset="0">
        <phase duration="42" state="GGggrrrrGGggrrrr" minDur="5" maxDur="50"/>
        <phase duration="3"  state="yyyyrrrryyyyrrrr"/>
        <phase duration="42" state="rrrrGGggrrrrGGgg" minDur="5" maxDur="50"/>
        <phase duration="3"  state="rrrryyyyrrrryyyy"/>
    </tlLogic>
    <tlLogic id="10799656" type="actuated" programID="0" offset="0">
        <phase duration="42" state="GGGGGgrrrr" minDur="5" maxDur="50"/>
        <phase duration="3"  state="yyyyyyrrrr"/>
        <phase duration="42" state="GrrrrrGGGg" minDur="5" maxDur="50"/>
        <phase duration="3"  state="yrrrrryyyy"/>
    </tlLogic>
    <tlLogic id="1161452868" type="actuated" programID="0" offset="0">
        <phase duration="82" state="GG" minDur="5" maxDur="50"/>
        <phase duration="3"  state="yy"/>
        <phase duration="5"  state="rr"/>
    </tlLogic>
    <tlLogic id="1209565690" type="actuated" programID="0" offset="0">
        <phase duration="82" state="GG" minDur="5" maxDur="50"/>
        <phase duration="3"  state="yy"/>
        <phase duration="5"  state="rr"/>
    </tlLogic>
    <tlLogic id="1286291752" type="actuated" programID="0" offset="0">
        <phase duration="82" state="G" minDur="5" maxDur="50"/>
        <phase duration="3"  state="y"/>
        <phase duration="5"  state="r"/>
    </tlLogic>
    <tlLogic id="1286347115" type="actuated" programID="0" offset="0">
        <phase duration="82" state="GG" minDur="5" maxDur="50"/>
        <phase duration="3"  state="yy"/>
        <phase duration="5"  state="rr"/>
    </tlLogic>
    <tlLogic id="1591479354" type="actuated" programID="0" offset="0">
        <phase duration="42" state="GgGgrr" minDur="5" maxDur="50"/>
        <phase duration="3"  state="yyyyrr"/>
        <phase duration="42" state="rGrGGG" minDur="5" maxDur="50"/>
        <phase duration="3"  state="ryryyy"/>
    </tlLogic>
    <tlLogic id="279208900" type="actuated" programID="0" offset="0">
        <phase duration="42" state="GggGGgrrrr" minDur="5" maxDur="50"/>
        <phase duration="3"  state="yyyyyyrrrr"/>
        <phase duration="42" state="rrrrrrGGGG" minDur="5" maxDur="50"/>
        <phase duration="3"  state="rrrrrryyyy"/>
    </tlLogic>
    <tlLogic id="280138993" type="actuated" programID="0" offset="0">
        <phase duration="82" state="GG" minDur="5" maxDur="50"/>
        <phase duration="3"  state="yy"/>
        <phase duration="5"  state="rr"/>
    </tlLogic>
    <tlLogic id="280139006" type="actuated" programID="0" offset="0">
        <phase duration="82" state="GG" minDur="5" maxDur="50"/>
        <phase duration="3"  state="yy"/>
        <phase duration="5"  state="rr"/>
    </tlLogic>
    <tlLogic id="3623066574" type="actuated" programID="0" offset="0">
        <phase duration="41" state="GGgrrrrGGgrrrr" minDur="7" maxDur="50"/>
        <phase duration="4"  state="yyyrrrryyyrrrr"/>
        <phase duration="41" state="rrrGGggrrrGGgg" minDur="5" maxDur="50"/>
        <phase duration="4"  state="rrryyyyrrryyyy"/>
    </tlLogic>
    <tlLogic id="590035" type="actuated" programID="0" offset="0">
        <phase duration="42" state="GGGGgrrr" minDur="5" maxDur="50"/>
        <phase duration="3"  state="yyyyyrrr"/>
        <phase duration="42" state="rrrrrGGG" minDur="5" maxDur="50"/>
        <phase duration="3"  state="rrrrryyy"/>
    </tlLogic>
    <tlLogic id="590038" type="actuated" programID="0" offset="0">
        <phase duration="42" state="GGGrr" minDur="5" maxDur="50"/>
        <phase duration="3"  state="yyyrr"/>
        <phase duration="42" state="rrrGG" minDur="5" maxDur="50"/>
        <phase duration="3"  state="rrryy"/>
    </tlLogic>
    <tlLogic id="590050" type="actuated" programID="0" offset="0">
        <phase duration="42" state="GGgrrrGGG" minDur="5" maxDur="50"/>
        <phase duration="3"  state="yyyrrryyy"/>
        <phase duration="42" state="rrrGGgGrr" minDur="5" maxDur="50"/>
        <phase duration="3"  state="rrryyyyrr"/>
    </tlLogic>
    <tlLogic id="590058" type="actuated" programID="0" offset="0">
        <phase duration="82" state="GGGG" minDur="5" maxDur="50"/>
        <phase duration="3"  state="yyyy"/>
        <phase duration="5"  state="rrrr"/>
    </tlLogic>
    <tlLogic id="9217030528" type="actuated" programID="0" offset="0">
        <phase duration="82" state="GG" minDur="5" maxDur="50"/>
        <phase duration="3"  state="yy"/>
        <phase duration="5"  state="rr"/>
    </tlLogic>
    <tlLogic id="9217030529" type="actuated" programID="0" offset="0">
        <phase duration="82" state="G" minDur="5" maxDur="50"/>
        <phase duration="3"  state="y"/>
        <phase duration="5"  state="r"/>
    </tlLogic>
    <tlLogic id="GS_10799654" type="actuated" programID="0" offset="0">
        <phase duration="42" state="GGGggrrrrGGggrrrr" minDur="5" maxDur="50"/>
        <phase duration="3"  state="yyyyyrrrryyyyrrrr"/>
        <phase duration="42" state="rrrrrGGggrrrrGGgg" minDur="5" maxDur="50"/>
        <phase duration="3"  state="rrrrryyyyrrrryyyy"/>
    </tlLogic>
    <tlLogic id="GS_1557557228" type="actuated" programID="0" offset="0">
        <phase duration="42" state="GGGggrrrrGGGggrrrr" minDur="5" maxDur="50"/>
        <phase duration="3"  state="yyyyyrrrryyyyyrrrr"/>
        <phase duration="42" state="rrrrrGGggrrrrrGGgg" minDur="5" maxDur="50"/>
        <phase duration="3"  state="rrrrryyyyrrrrryyyy"/>
    </tlLogic>
    <tlLogic id="GS_1557557262" type="actuated" programID="0" offset="0">
        <phase duration="82" state="GGGgGGGg" minDur="5" maxDur="50"/>
        <phase duration="3"  state="yyyyyyyy"/>
        <phase duration="5"  state="rrrrrrrr"/>
    </tlLogic>
    <tlLogic id="GS_274277653" type="actuated" programID="0" offset="0">
        <phase duration="42" state="GGggrrrrGGggrrrr" minDur="5" maxDur="50"/>
        <phase duration="3"  state="yyyyrrrryyyyrrrr"/>
        <phase duration="42" state="rrrrGGggrrrrGGgg" minDur="5" maxDur="50"/>
        <phase duration="3"  state="rrrryyyyrrrryyyy"/>
    </tlLogic>
    <tlLogic id="GS_3426364112" type="actuated" programID="0" offset="0">
        <phase duration="42" state="GgrrGGg" minDur="5" maxDur="50"/>
        <phase duration="3"  state="yyrryyy"/>
        <phase duration="42" state="rrGGrrr" minDur="5" maxDur="50"/>
        <phase duration="3"  state="rryyrrr"/>
    </tlLogic>
    <tlLogic id="GS_589735" type="actuated" programID="0" offset="0">
        <phase duration="42" state="GGgrrrrGgg" minDur="5" maxDur="50"/>
        <phase duration="3"  state="yyyrrrryyy"/>
        <phase duration="42" state="rrrGGGGrrG" minDur="5" maxDur="50"/>
        <phase duration="3"  state="rrryyyyrry"/>
    </tlLogic>
    <tlLogic id="GS_645213" type="actuated" programID="0" offset="0">
        <phase duration="33" state="rrrrGGggrrrGGgg" minDur="5" maxDur="50"/>
        <phase duration="3"  state="rrrryyggrrryygg"/>
        <phase duration="6"  state="rrrrrrGGrrrrrGG" minDur="5" maxDur="50"/>
        <phase duration="3"  state="rrrrrryyrrrrryy"/>
        <phase duration="33" state="GGggrrrrGGgrrrr" minDur="5" maxDur="50"/>
        <phase duration="3"  state="yyggrrrryyyrrrr"/>
        <phase duration="6"  state="GGGGrrrrrrrrrrr" minDur="5" maxDur="50"/>
        <phase duration="3"  state="yyyyrrrrrrrrrrr"/>
    </tlLogic>
    <tlLogic id="GS_69451975" type="actuated" programID="0" offset="0">
        <phase duration="42" state="rrrrGGgrrrrGGg" minDur="5" maxDur="50"/>
        <phase duration="3"  state="rrrryyyrrrryyy"/>
        <phase duration="42" state="GGggrrrGGggrrr" minDur="5" maxDur="50"/>
        <phase duration="3"  state="yyyyrrryyyyrrr"/>
    </tlLogic>
    <tlLogic id="GS_cluster_1161452795_509275151" type="actuated" programID="0" offset="0">
        <phase duration="38" state="GGGGgGGGggrrrr" minDur="5" maxDur="50"/>
        <phase duration="3"  state="yyyyyyyyggrrrr"/>
        <phase duration="6"  state="rrrrrGGGGGrrrr" minDur="5" maxDur="50"/>
        <phase duration="3"  state="rrrrryyyyyrrrr"/>
        <phase duration="37" state="GrrrrrrrrrGGGg" minDur="5" maxDur="50"/>
        <phase duration="3"  state="yrrrrrrrrryyyy"/>
    </tlLogic>
    <tlLogic id="cluster_100215705_1348442464" type="actuated" programID="0" offset="0">
        <phase duration="41" state="rrrrrrrrrrGGGggrrrrrGGggg" minDur="5" maxDur="50"/>
        <phase duration="3"  state="rrrrrrrrrryyyyyrrrrryyyyy"/>
        <phase duration="1"  state="rrrrrrrrrrrrrrrrrrrrrrrrr"/>
        <phase duration="41" state="GGggggggggrrrrrGGgggrrrrr" minDur="5" maxDur="50"/>
        <phase duration="3"  state="yyyyyyyyyyrrrrryyyyyrrrrr"/>
        <phase duration="1"  state="rrrrrrrrrrrrrrrrrrrrrrrrr"/>
    </tlLogic>
    <tlLogic id="cluster_100224184_10929271159_446755810" type="actuated" programID="0" offset="0">
        <phase duration="18" state="rrrrrrggggggGGGGGGrrrrrrrrrrrrrrrrr" minDur="5" maxDur="50"/>
        <phase duration="3"  state="rrrrrryyyyyyyyyyyyrrrrrrrrrrrrrrrrr"/>
        <phase duration="20" state="ggGgggrrrrrrrrrrrrGGGgggrrrrrrrrrrr" minDur="5" maxDur="50"/>
        <phase duration="3"  state="yyyyyyrrrrrrrrrrrryyyyyyrrrrrrrrrrr"/>
        <phase duration="20" state="rrrrrrrrrrrrrrrrrrrrrrrrGGGGGGrrrrr" minDur="5" maxDur="50"/>
        <phase duration="3"  state="rrrrrrrrrrrrrrrrrrrrrrrryyyyyyrrrrr"/>
        <phase duration="20" state="GrrrrrrrrrrrrrrrrrrrrrrrrrrrrGGGGGg" minDur="5" maxDur="50"/>
        <phase duration="3"  state="yrrrrrrrrrrrrrrrrrrrrrrrrrrrryyyyyy"/>
    </tlLogic>
    <tlLogic id="cluster_10799645_760778547" type="actuated" programID="0" offset="0">
        <phase duration="27" state="rrrrrrrrGGGgGrrr" minDur="5" maxDur="50"/>
        <phase duration="3"  state="rrrrrrrryyyyyrrr"/>
        <phase duration="27" state="GrrrrrrrrrrrGGGg" minDur="5" maxDur="50"/>
        <phase duration="3"  state="yrrrrrrrrrrryyyy"/>
        <phase duration="27" state="ggggGGGgrrrrrrrr" minDur="5" maxDur="50"/>
        <phase duration="3"  state="yyyyyyyyrrrrrrrr"/>
    </tlLogic>
    <tlLogic id="cluster_1102808908_1126219027_1679926143_1680013167_#10more" type="actuated" programID="0" offset="0">
        <phase duration="22" state="rrrrrrGGGGggrrrrrGG" minDur="5" maxDur="50"/>
        <phase duration="3"  state="rrrrrryyyyggrrrrryy"/>
        <phase duration="6"  state="rrrrrrGGGGGGrrrrrrr" minDur="5" maxDur="50"/>
        <phase duration="3"  state="rrrrrryyyyyyrrrrrrr"/>
        <phase duration="2"  state="rrrrrrrrrrrrrrrrrrr"/>
        <phase duration="22" state="rrrGGgrrrrrrGGggGrr" minDur="5" maxDur="50"/>
        <phase duration="3"  state="rrryyyrrrrrryyyyyrr"/>
        <phase duration="2"  state="rrrrrrrrrrrrrrrrrrr"/>
        <phase duration="22" state="GGgGrrrrrrGgGrrrrrr" minDur="5" maxDur="50"/>
        <phase duration="3"  state="yyyyrrrrrryyyrrrrrr"/>
        <phase duration="2"  state="rrrrrrrrrrrrrrrrrrr"/>
    </tlLogic>
    <tlLogic id="cluster_1109728524_1161452633_69308133" type="actuated" programID="0" offset="0">
        <phase duration="42" state="GGggrrrrrGGGggrrrrr" minDur="5" maxDur="50"/>
        <phase duration="3"  state="yyyyrrrrryyyyyrrrrr"/>
        <phase duration="42" state="rrrrGGGggrrrrrGGggg" minDur="5" maxDur="50"/>
        <phase duration="3"  state="rrrryyyyyrrrrryyyyy"/>
    </tlLogic>
    <tlLogic id="cluster_1115318063_1115318088_1115318483_129996763_#5more" type="actuated" programID="0" offset="0">
        <phase duration="19" state="rrrrGrrrrrrrrrrrrrrrrGggggggGGGGGggrrr" minDur="5" maxDur="50"/>
        <phase duration="3"  state="rrrryrrrrrrrrrrrrrrrryggggggyyyyyggrrr"/>
        <phase duration="6"  state="rrrrrrrrrrrrrrrrrrrrrrGGGGGGrrrrrggrrr" minDur="5" maxDur="50"/>
        <phase duration="3"  state="rrrrrrrrrrrrrrrrrrrrrryyyyyyrrrrryyrrr"/>
        <phase duration="21" state="ggGGrrrrrrrrrGGGGgggGrrrrrrrrrrrrrrrrr" minDur="5" maxDur="50"/>
        <phase duration="3"  state="ggyyrrrrrrrrryyyygggyrrrrrrrrrrrrrrrrr"/>
        <phase duration="6"  state="ggrrrrrrrrrrrrrrrGgGrrrrrrrrrrrrrrrrrr" minDur="5" maxDur="50"/>
        <phase duration="3"  state="yyrrrrrrrrrrrrrrryyyrrrrrrrrrrrrrrrrrr"/>
        <phase duration="2"  state="rrrrrrrrrrrrrrrrrrrrrrrrrrrrrrrrrrrrrr"/>
        <phase duration="21" state="rrrrrgGGGGggGGrrrrrrrrrrrrrrrrrrrrrGGg" minDur="5" maxDur="50"/>
        <phase duration="3"  state="rrrrryyyyyyyyyrrrrrrrrrrrrrrrrrrrrryyy"/>
    </tlLogic>
    <tlLogic id="cluster_1115318374_135394973_2450415783_3813178924" type="actuated" programID="0" offset="0">
        <phase duration="42" state="ggggggGGggggrrrrrrggggggGGGGggrrrrrr" minDur="5" maxDur="50"/>
        <phase duration="3"  state="yyyyyyyyyyyyrrrrrryyyyyyyyyyyyrrrrrr"/>
        <phase duration="41" state="rrrrrrrrrrrrGGGgggrrrrrrrrrrrrGGGggg" minDur="5" maxDur="50"/>
        <phase duration="3"  state="rrrrrrrrrrrryyyyyyrrrrrrrrrrrryyyyyy"/>
        <phase duration="1"  state="rrrrrrrrrrrrrrrrrrrrrrrrrrrrrrrrrrrr"/>
    </tlLogic>
    <tlLogic id="cluster_1115318652_5905706005" type="actuated" programID="0" offset="0">
        <phase duration="27" state="rGGgGggrrr" minDur="5" maxDur="50"/>
        <phase duration="3"  state="ryyyyyyrrr"/>
        <phase duration="27" state="GrGgGrrrrG" minDur="5" maxDur="50"/>
        <phase duration="3"  state="yryyyrrrry"/>
        <phase duration="27" state="rGrrrrrGGg" minDur="5" maxDur="50"/>
        <phase duration="3"  state="ryrrrrryyy"/>
    </tlLogic>
    <tlLogic id="cluster_111994065_20275972_2748509194" type="actuated" programID="0" offset="0">
        <phase duration="42" state="rrrrGGggrrrrGgGgg" minDur="5" maxDur="50"/>
        <phase duration="3"  state="rrrryyyyrrrryyyyy"/>
        <phase duration="42" state="GGggrrrrGGggrrrrr" minDur="5" maxDur="50"/>
        <phase duration="3"  state="yyyyrrrryyyyrrrrr"/>
    </tlLogic>
    <tlLogic id="cluster_1122692183_443918742_5710307254_69317379" type="actuated" programID="0" offset="0">
        <phase duration="24" state="GGGgggrrrrrrrrrrGGGgggrrrrrrrrrr" minDur="5" maxDur="50"/>
        <phase duration="3"  state="yyygggrrrrrrrrrryyygggrrrrrrrrrr"/>
        <phase duration="6"  state="rrrGGGrrrrrrrrrrrrrGGGrrrrrrrrrr" minDur="5" maxDur="50"/>
        <phase duration="3"  state="rrryyyrrrrrrrrrrrrryyyrrrrrrrrrr"/>
        <phase duration="24" state="rrrrrrGGgggrrrrrrrrrrrrrrrGGGGgg" minDur="5" maxDur="50"/>
        <phase duration="3"  state="rrrrrryyyyyrrrrrrrrrrrrrrryyyyyy"/>
        <phase duration="24" state="rrrrrrrrrrrGGGggGrrrrrGgggGrrrrr" minDur="5" maxDur="50"/>
        <phase duration="3"  state="rrrrrrrrrrryyyyyyrrrrryyyyyrrrrr"/>
    </tlLogic>
    <tlLogic id="cluster_11496729525_11496729526_2724400937_69259748" type="actuated" programID="0" offset="0">
        <phase duration="18" state="GggrrrrrrGGg" minDur="5" maxDur="50"/>
        <phase duration="3"  state="yyyrrrrrryyy"/>
        <phase duration="20" state="rrGGGrrrGGrG" minDur="5" maxDur="50"/>
        <phase duration="3"  state="rryyyrrryyry"/>
        <phase duration="20" state="rrGGGrrrGGrG" minDur="5" maxDur="50"/>
        <phase duration="3"  state="rryyyrrryyry"/>
        <phase duration="20" state="rrrrrGGgrGrr" minDur="5" maxDur="50"/>
        <phase duration="3"  state="rrrrryyyryrr"/>
    </tlLogic>
    <tlLogic id="cluster_1161452813_130253130_1709070286_1709070287_#3more" type="actuated" programID="0" offset="0">
        <phase duration="38" state="GGgrrGG" minDur="5" maxDur="50"/>
        <phase duration="3"  state="yygrryy"/>
        <phase duration="6"  state="GGGrrrr" minDur="5" maxDur="50"/>
        <phase duration="3"  state="yyyrrrr"/>
        <phase duration="37" state="rrrGGGr" minDur="5" maxDur="50"/>
        <phase duration="3"  state="rrryyyr"/>
    </tlLogic>
    <tlLogic id="cluster_1161473930_490651" type="actuated" programID="0" offset="0">
        <phase duration="82" state="GGgGgg" minDur="5" maxDur="50"/>
        <phase duration="3"  state="yyyyyy"/>
        <phase duration="5"  state="rrrrrr"/>
    </tlLogic>
    <tlLogic id="cluster_1161690272_273345251_490653" type="actuated" programID="0" offset="0">
        <phase duration="37" state="GGGggrrrrGGGggrrrr" minDur="5" maxDur="50"/>
        <phase duration="3"  state="yyyyyrrrryyyyyrrrr"/>
        <phase duration="1"  state="rrrrrrrrrrrrrrrrrr"/>
        <phase duration="36" state="rrrrrGGggrrrrrGGgg" minDur="5" maxDur="50"/>
        <phase duration="3"  state="rrrrryyggrrrrryygg"/>
        <phase duration="6"  state="rrrrrrrGGrrrrrrrGG" minDur="5" maxDur="50"/>
        <phase duration="3"  state="rrrrrrryyrrrrrrryy"/>
        <phase duration="1"  state="rrrrrrrrrrrrrrrrrr"/>
    </tlLogic>
    <tlLogic id="cluster_120518064_1348292132" type="actuated" programID="0" offset="0">
        <phase duration="38" state="rrrrrGGGgggrrrrrrrrrrGGGgg" minDur="5" maxDur="50"/>
        <phase duration="3"  state="rrrrryyygggrrrrrrrrrryyygg"/>
        <phase duration="6"  state="rrrrrrrrGGGrrrrrrrrrrrrrGG" minDur="5" maxDur="50"/>
        <phase duration="3"  state="rrrrrrrryyyrrrrrrrrrrrrryy"/>
        <phase duration="37" state="GGgggrrrrrrGGgggGggggrrrrr" minDur="5" maxDur="50"/>
        <phase duration="3"  state="yyyyyrrrrrryyyyyyyyyyrrrrr"/>
    </tlLogic>
    <tlLogic id="cluster_1286347120_253227965_3213224" type="actuated" programID="0" offset="0">
        <phase duration="27" state="ggGgggrrrrrrrrrrrrGGGgggrrrrrrrrrrrr" minDur="5" maxDur="50"/>
        <phase duration="3"  state="yyyyyyrrrrrrrrrrrryyyyyyrrrrrrrrrrrr"/>
        <phase duration="27" state="rrrrrrrrrrrrGGGgggrrrrrrrrrrrrgGgggg" minDur="5" maxDur="50"/>
        <phase duration="3"  state="rrrrrrrrrrrryyyyyyrrrrrrrrrrrryyyyyy"/>
        <phase duration="27" state="rrrrrrGGGgggrrrrrrrrrrrrGGGgggrrrrrr" minDur="5" maxDur="50"/>
        <phase duration="3"  state="rrrrrryyyyyyrrrrrrrrrrrryyyyyyrrrrrr"/>
    </tlLogic>
    <tlLogic id="cluster_1286473900_490637_7568491488" type="actuated" programID="0" offset="0">
        <phase duration="37" state="GGGggrrrrrGGgggrrrrrrrrrr" minDur="5" maxDur="50"/>
        <phase duration="3"  state="yyyggrrrrryygggrrrrrrrrrr"/>
        <phase duration="6"  state="rrrGGrrrrrrrGGGrrrrrrrrrr" minDur="5" maxDur="50"/>
        <phase duration="3"  state="rrryyrrrrrrryyyrrrrrrrrrr"/>
        <phase duration="1"  state="rrrrrrrrrrrrrrrrrrrrrrrrr"/>
        <phase duration="36" state="rrrrrGGgggrrrrrGGgggggggg" minDur="5" maxDur="50"/>
        <phase duration="3"  state="rrrrryyyyyrrrrryyyyyyyyyy"/>
        <phase duration="1"  state="rrrrrrrrrrrrrrrrrrrrrrrrr"/>
    </tlLogic>
    <tlLogic id="cluster_1348442601_18241663_69453080" type="actuated" programID="0" offset="0">
        <phase duration="32" state="rrrrGGGggrrrrrrGGggg" minDur="5" maxDur="50"/>
        <phase duration="3"  state="rrrryyyggrrrrrryyggg"/>
        <phase duration="6"  state="rrrrrrrGGrrrrrrrrGGG" minDur="5" maxDur="50"/>
        <phase duration="3"  state="rrrrrrryyrrrrrrrryyy"/>
        <phase duration="1"  state="rrrrrrrrrrrrrrrrrrrr"/>
        <phase duration="32" state="GGggrrrrrGGgGggrrrrr" minDur="5" maxDur="50"/>
        <phase duration="3"  state="yyggrrrrryyyyggrrrrr"/>
        <phase duration="6"  state="rrGGrrrrrrrrrGGrrrrr" minDur="5" maxDur="50"/>
        <phase duration="3"  state="rryyrrrrrrrrryyrrrrr"/>
        <phase duration="1"  state="rrrrrrrrrrrrrrrrrrrr"/>
    </tlLogic>
    <tlLogic id="cluster_137841202_1665392502_1679926162_257087249_#5more" type="actuated" programID="0" offset="0">
        <phase duration="27" state="rrrrrrGGGGggggggggGGggggrrrrrr" minDur="5" maxDur="50"/>
        <phase duration="3"  state="rrrrrryyyyyyyyyyyyyyyyyyrrrrrr"/>
        <phase duration="27" state="GggGGgGrrrrrrrrrrrrrrrrrrrrGGg" minDur="5" maxDur="50"/>
        <phase duration="3"  state="yyyyyyyrrrrrrrrrrrrrrrrrrrryyy"/>
        <phase duration="27" state="rrrGGgGrrrrrrrrrrrrrrrrrGGgGrr" minDur="5" maxDur="50"/>
        <phase duration="3"  state="rrryyyyrrrrrrrrrrrrrrrrryyyyrr"/>
    </tlLogic>
    <tlLogic id="cluster_13823895_270520419_5375721287_69308126_#2more" type="actuated" programID="0" offset="0">
        <phase duration="20" state="rrrrrrrgGgggGgggrrrrrrrggggggrrrrrrrGgGGGgg" minDur="5" maxDur="50"/>
        <phase duration="3"  state="rrrrrrryyyggyyggrrrrrrrygggggrrrrrrrygyyygg"/>
        <phase duration="6"  state="rrrrrrrrrrGgrrggrrrrrrrrgggggrrrrrrrrgrrrGg" minDur="5" maxDur="50"/>
        <phase duration="3"  state="rrrrrrrrrryyrryyrrrrrrrryyyyyrrrrrrrryrrryy"/>
        <phase duration="1"  state="rrrrrrrrrrrrrrrrrrrrrrrrrrrrrrrrrrrrrrrrrrr"/>
        <phase duration="21" state="GGGGGggrrrrrrrrrGGgggggrrrrrrrrrrrrrrrrrrrr" minDur="5" maxDur="50"/>
        <phase duration="3"  state="yyyyyggrrrrrrrrryyyygggrrrrrrrrrrrrrrrrrrrr"/>
        <phase duration="6"  state="rrrrrGGrrrrrrrrrrrrrGGGrrrrrrrrrrrrrrrrrrrr" minDur="5" maxDur="50"/>
        <phase duration="3"  state="rrrrryyrrrrrrrrrrrrryyyrrrrrrrrrrrrrrrrrrrr"/>
        <phase duration="21" state="rrrrrrrrrrrrrrrrrrrrrrrrrrrrrGGGGGGgrrGrrrr" minDur="5" maxDur="50"/>
        <phase duration="3"  state="rrrrrrrrrrrrrrrrrrrrrrrrrrrrryyyyyyyrryrrrr"/>
    </tlLogic>
    <tlLogic id="cluster_1447957262_1447957288_1447957289_5673061708" type="actuated" programID="0" offset="0">
        <phase duration="38" state="GggrrG" minDur="5" maxDur="50"/>
        <phase duration="3"  state="yggrry"/>
        <phase duration="6"  state="GGGrrr" minDur="5" maxDur="50"/>
        <phase duration="3"  state="yyyrrr"/>
        <phase duration="37" state="rrrGGr" minDur="5" maxDur="50"/>
        <phase duration="3"  state="rrryyr"/>
    </tlLogic>
    <tlLogic id="cluster_1557557216_1557557285_1909049016_299403593_#9more" type="actuated" programID="0" offset="0">
        <phase duration="42" state="rrrrrgggggGGGggrrrrrGGGggg" minDur="5" maxDur="50"/>
        <phase duration="3"  state="rrrrryyyyyyyyyyrrrrryyyyyy"/>
        <phase duration="42" state="GGGggrrrrrrrrrrgggggrrrrrr" minDur="5" maxDur="50"/>
        <phase duration="3"  state="yyyyyrrrrrrrrrryyyyyrrrrrr"/>
    </tlLogic>
    <tlLogic id="cluster_1557557219_1557557232_1557557240_3432294821_#1more" type="actuated" programID="0" offset="0">
        <phase duration="26" state="GGGggrrrrrrrrGGGggrrrr" minDur="5" maxDur="50"/>
        <phase duration="3"  state="yyyyyrrrrrrrryyyyyrrrr"/>
        <phase duration="27" state="rrrrrGGggrrrrrrrrrGGgg" minDur="5" maxDur="50"/>
        <phase duration="3"  state="rrrrryyyyrrrrrrrrryyyy"/>
        <phase duration="1"  state="rrrrrrrrrrrrrrrrrrrrrr"/>
        <phase duration="27" state="rrrrrrrrrGGGGrrrrrrrrr" minDur="5" maxDur="50"/>
        <phase duration="3"  state="rrrrrrrrryyyyrrrrrrrrr"/>
    </tlLogic>
    <tlLogic id="cluster_1679691968_1679691969_1679691970_5424747385_#6more" type="actuated" programID="0" offset="0">
        <phase duration="38" state="gggggggggrrrrrrrrrrrrrrrrrrgggggggggggggGgggggggggggggrrrrrrrrrgggggggggggGGggggg" minDur="5" maxDur="50"/>
        <phase duration="3"  state="yyyyyyyyyrrrrrrrrrrrrrrrrrryyyyyyyyyyyyyyyyyyyyyyyyyyyrrrrrrrrryyyyyyyyyyyyyyyyyy"/>
        <phase duration="37" state="rrrrrrrrrGGGGggggggggggggggrrrrrrrrrrrrrrrrrrrrrrrrrrrGGGGgggggrrrrrrrrrrrrrrrrrr" minDur="5" maxDur="50"/>
        <phase duration="3"  state="rrrrrrrrryyyyggggggggggggggrrrrrrrrrrrrrrrrrrrrrrrrrrryyyygggggrrrrrrrrrrrrrrrrrr"/>
        <phase duration="6"  state="rrrrrrrrrrrrrgggggggggGggggrrrrrrrrrrrrrrrrrrrrrrrrrrrrrrrgggggrrrrrrrrrrrrrrrrrr" minDur="5" maxDur="50"/>
        <phase duration="3"  state="rrrrrrrrrrrrryyyyyyyyyyyyyyrrrrrrrrrrrrrrrrrrrrrrrrrrrrrrryyyyyrrrrrrrrrrrrrrrrrr"/>
    </tlLogic>
    <tlLogic id="cluster_1679691971_254016926_5433633366_5904883192_#1more" type="actuated" programID="0" offset="0">
        <phase duration="15" state="GrrrrrrrrrrrrrrrGGGg" minDur="5" maxDur="50"/>
        <phase duration="3"  state="yrrrrrrrrrrrrrrryyyy"/>
        <phase duration="17" state="rrrrGGGgGrrrrrrrrrrr" minDur="5" maxDur="50"/>
        <phase duration="3"  state="rrrryyyyyrrrrrrrrrrr"/>
        <phase duration="1"  state="rrrrrrrrrrrrrrrrrrrr"/>
        <phase duration="17" state="GGGgGrrrrrrrrrrrrrrr" minDur="5" maxDur="50"/>
        <phase duration="3"  state="yyyyyrrrrrrrrrrrrrrr"/>
        <phase duration="1"  state="rrrrrrrrrrrrrrrrrrrr"/>
        <phase duration="17" state="rrrrrrrrGGggggggrrrr" minDur="5" maxDur="50"/>
        <phase duration="3"  state="rrrrrrrryyggggggrrrr"/>
        <phase duration="6"  state="rrrrrrrrrrgggGggrrrr" minDur="5" maxDur="50"/>
        <phase duration="3"  state="rrrrrrrrrryyyyyyrrrr"/>
        <phase duration="1"  state="rrrrrrrrrrrrrrrrrrrr"/>
    </tlLogic>
    <tlLogic id="cluster_1688171899_75790052" type="actuated" programID="0" offset="0">
        <phase duration="42" state="GggrrrGGg" minDur="5" maxDur="50"/>
        <phase duration="3"  state="yyyrrryyy"/>
        <phase duration="42" state="rrrGGgGrr" minDur="5" maxDur="50"/>
        <phase duration="3"  state="rrryyyyrr"/>
    </tlLogic>
    <tlLogic id="cluster_1721481658_21288851_21288852_2948402175_#1more" type="actuated" programID="0" offset="0">
        <phase duration="33" state="rrrrrGGGggrrrrrGGGgggggggg" minDur="5" maxDur="50"/>
        <phase duration="3"  state="rrrrryyyggrrrrryyygggggggg"/>
        <phase duration="6"  state="rrrrrrrrGgrrrrrrrrGGgGgggg" minDur="5" maxDur="50"/>
        <phase duration="3"  state="rrrrrrrryyrrrrrrrryyyyyyyy"/>
        <phase duration="33" state="GGGggrrrrrGGgggrrrrrrrrrrr" minDur="5" maxDur="50"/>
        <phase duration="3"  state="yyyggrrrrryygggrrrrrrrrrrr"/>
        <phase duration="6"  state="rrrGGrrrrrrrGGGrrrrrrrrrrr" minDur="5" maxDur="50"/>
        <phase duration="3"  state="rrryyrrrrrrryyyrrrrrrrrrrr"/>
    </tlLogic>
    <tlLogic id="cluster_1739644528_257087246_282609870_490643_#1more" type="actuated" programID="0" offset="0">
        <phase duration="16" state="rrrrrrrrgggGggggggggggggrrrrrrrrrrrrrrrrGGGGggggrrrrrrrrrrrrrrrr" minDur="5" maxDur="50"/>
        <phase duration="3"  state="rrrrrrrryyyyyyyyyyyyyyyyrrrrrrrrrrrrrrrryyyyyyyyrrrrrrrrrrrrrrrr"/>
        <phase duration="2"  state="rrrrrrrrrrrrrrrrrrrrrrrrrrrrrrrrrrrrrrrrrrrrrrrrrrrrrrrrrrrrrrrr"/>
        <phase duration="19" state="GgGggGggrrrrrrrrrrrrrrrrrrrrrrrrGgggggggrrrrrrrrrrrrrrrrrrrrrrrr" minDur="5" maxDur="50"/>
        <phase duration="3"  state="yyyyyyyyrrrrrrrrrrrrrrrrrrrrrrrryyyyyyyyrrrrrrrrrrrrrrrrrrrrrrrr"/>
        <phase duration="3"  state="rrrrrrrrrrrrrrrrrrrrrrrrrrrrrrrrrrrrrrrrrrrrrrrrrrrrrrrrrrrrrrrr"/>
        <phase duration="19" state="rrrrrrrrrrrrrrrrrrrrrrrrGGGGggggrrrrrrrrrrrrrrrrrrrrrrrrggGggggg" minDur="5" maxDur="50"/>
        <phase duration="3"  state="rrrrrrrrrrrrrrrrrrrrrrrryyyyyyyyrrrrrrrrrrrrrrrrrrrrrrrryyyyyyyy"/>
        <phase duration="19" state="rrrrrrrrrrrrrrrrrrrrrrrrrrrrrrrrrrrrrrrrrrrrrrrrGGGGGGGgGrrrrrrr" minDur="5" maxDur="50"/>
        <phase duration="3"  state="rrrrrrrrrrrrrrrrrrrrrrrrrrrrrrrrrrrrrrrrrrrrrrrryyyyyyyyyrrrrrrr"/>
    </tlLogic>
    <tlLogic id="cluster_18241662_3082807019_5707356130" type="actuated" programID="0" offset="0">
        <phase duration="42" state="GGggrrrrrGGggGgrrrr" minDur="5" maxDur="50"/>
        <phase duration="3"  state="yyyyrrrrryyyyyyrrrr"/>
        <phase duration="42" state="rrrrGGGggrrrrrrGGgg" minDur="5" maxDur="50"/>
        <phase duration="3"  state="rrrryyyyyrrrrrryyyy"/>
    </tlLogic>
    <tlLogic id="cluster_20275932_518929998" type="actuated" programID="0" offset="0">
        <phase duration="33" state="GGgGggrrrrrGGGggrrrr" minDur="5" maxDur="50"/>
        <phase duration="3"  state="yyyyggrrrrryyyggrrrr"/>
        <phase duration="6"  state="rrrrGGrrrrrrrrGGrrrr" minDur="5" maxDur="50"/>
        <phase duration="3"  state="rrrryyrrrrrrrryyrrrr"/>
        <phase duration="32" state="rrrrrrGGgggrrrrrGGgg" minDur="5" maxDur="50"/>
        <phase duration="3"  state="rrrrrryygggrrrrryygg"/>
        <phase duration="6"  state="rrrrrrrrGGGrrrrrrrGG" minDur="5" maxDur="50"/>
        <phase duration="3"  state="rrrrrrrryyyrrrrrrryy"/>
        <phase duration="1"  state="rrrrrrrrrrrrrrrrrrrr"/>
    </tlLogic>
    <tlLogic id="cluster_20963866_20963867_590096" type="actuated" programID="0" offset="0">
        <phase duration="27" state="rrrrrGGGgGrrrrr" minDur="5" maxDur="50"/>
        <phase duration="3"  state="rrrrryyyyyrrrrr"/>
        <phase duration="27" state="rrrrgGrrrGGgGrr" minDur="5" maxDur="50"/>
        <phase duration="3"  state="rrrryyrrryyyyrr"/>
        <phase duration="27" state="GGGGgGrrrrrrggg" minDur="5" maxDur="50"/>
        <phase duration="3"  state="yyyyyyrrrrrryyy"/>
    </tlLogic>
    <tlLogic id="cluster_235908976_5424780553_5424780563_5433624374" type="actuated" programID="0" offset="0">